%%%%%%%%%%%%%%%%%%%%%%%%%%%%%%%%%%%%%%%%%%%%%%%%%%%%%%%%%%%%%%%%%%%%%%%%%%%
%%%%                                                                  %%%%%
%%%%    IEEE PES Power Grid Library - Optimal Power Flow - v17.07     %%%%%
%%%%          (https://github.com/power-grid-lib/pglib-opf)           %%%%%
%%%%             Benchmark Group - Small Angle Difference             %%%%%
%%%%                         27 - June - 2017                         %%%%%
%%%%                                                                  %%%%%
%%%%%%%%%%%%%%%%%%%%%%%%%%%%%%%%%%%%%%%%%%%%%%%%%%%%%%%%%%%%%%%%%%%%%%%%%%%
function mpc = pglib_opf_case3120sp_mp__sad
mpc.version = '2';
mpc.baseMVA = 100.0;

%% area data
%	area	refbus
mpc.areas = [
	1	 1;
];

%% bus data
%	bus_i	type	Pd	Qd	Gs	Bs	area	Vm	Va	baseKV	zone	Vmax	Vmin
mpc.bus = [
	1	 1	 0.0	 0.0	 0.0	 0.0	 1	    1.10637	   -0.99774	 220.0	 1	    1.11000	    0.95000;
	2	 1	 0.0	 0.0	 0.0	 0.0	 1	    1.10696	    0.58034	 220.0	 1	    1.11000	    0.95000;
	3	 1	 0.0	 0.0	 0.0	 0.0	 1	    1.07701	  -15.07790	 220.0	 1	    1.11000	    0.95000;
	4	 1	 0.0	 0.0	 0.0	 0.0	 1	    1.07698	  -15.08667	 220.0	 1	    1.11000	    0.95000;
	5	 1	 0.0	 0.0	 0.0	 0.0	 1	    1.11000	  -17.50303	 220.0	 1	    1.11000	    0.95000;
	6	 1	 0.0	 0.0	 0.0	 0.0	 1	    1.08620	   -4.12157	 220.0	 1	    1.11000	    0.95000;
	7	 1	 0.0	 0.0	 0.0	 0.0	 1	    1.08620	   -4.12251	 220.0	 1	    1.11000	    0.95000;
	8	 1	 0.0	 0.0	 0.0	 0.0	 1	    1.09477	   -8.77571	 220.0	 1	    1.11000	    0.95000;
	9	 1	 0.0	 0.0	 0.0	 0.0	 1	    1.09497	   -8.76006	 220.0	 1	    1.11000	    0.95000;
	10	 1	 0.0	 0.0	 0.0	 0.0	 1	    1.11000	  -12.45505	 220.0	 1	    1.11000	    0.95000;
	11	 1	 0.0	 0.0	 0.0	 0.0	 1	    1.03727	   -5.89260	 400.0	 1	    1.05000	    0.95000;
	12	 1	 0.0	 0.0	 0.0	 0.0	 1	    1.03733	   -5.88254	 400.0	 1	    1.05000	    0.95000;
	13	 1	 0.0	 0.0	 0.0	 0.0	 1	    1.01423	   -9.48315	 400.0	 1	    1.05000	    0.95000;
	14	 1	 0.0	 0.0	 0.0	 0.0	 1	    1.04857	   -9.72251	 220.0	 1	    1.11000	    0.95000;
	15	 1	 0.0	 0.0	 0.0	 0.0	 1	    1.04842	   -9.72968	 220.0	 1	    1.11000	    0.95000;
	16	 1	 0.0	 0.0	 0.0	 0.0	 1	    1.01686	  -13.53027	 220.0	 1	    1.11000	    0.95000;
	17	 1	 0.0	 0.0	 0.0	 0.0	 1	    1.02349	  -13.61929	 220.0	 1	    1.11000	    0.95000;
	18	 1	 0.0	 0.0	 0.0	 0.0	 1	    1.04067	   -5.63646	 400.0	 1	    1.05000	    0.95000;
	19	 1	 0.0	 0.0	 0.0	 0.0	 1	    1.04071	   -5.62935	 400.0	 1	    1.05000	    0.95000;
	20	 1	 0.0	 0.0	 0.0	 0.0	 1	    1.02422	  -12.71749	 400.0	 1	    1.05000	    0.95000;
	21	 1	 0.0	 0.0	 0.0	 0.0	 1	    1.03066	   -9.28743	 400.0	 1	    1.05000	    0.95000;
	22	 2	 10.0	 20.0	 0.0	 0.0	 1	    1.06652	   -9.00140	 220.0	 1	    1.11000	    0.95000;
	23	 2	 10.0	 20.0	 0.0	 0.0	 1	    1.06657	   -8.99830	 220.0	 1	    1.11000	    0.95000;
	24	 1	 0.0	 0.0	 0.0	 0.0	 1	    1.09140	   -3.45227	 220.0	 1	    1.11000	    0.95000;
	25	 1	 0.0	 0.0	 0.0	 0.0	 1	    1.09149	   -3.45690	 220.0	 1	    1.11000	    0.95000;
	26	 1	 0.0	 0.0	 0.0	 0.0	 1	    1.05509	  -10.76473	 220.0	 1	    1.11000	    0.95000;
	27	 1	 0.0	 0.0	 0.0	 0.0	 1	    1.05507	  -10.76173	 220.0	 1	    1.11000	    0.95000;
	28	 1	 0.0	 0.0	 0.0	 0.0	 1	    1.04958	   -9.17006	 220.0	 1	    1.11000	    0.95000;
	29	 1	 0.0	 0.0	 0.0	 0.0	 1	    1.04953	   -9.18275	 220.0	 1	    1.11000	    0.95000;
	30	 1	 0.0	 0.0	 0.0	 0.0	 1	    1.09310	   -2.01858	 220.0	 1	    1.11000	    0.95000;
	31	 1	 0.0	 0.0	 0.0	 0.0	 1	    1.09302	   -2.03495	 220.0	 1	    1.11000	    0.95000;
	32	 1	 0.0	 0.0	 0.0	 0.0	 1	    1.04399	   -8.11315	 400.0	 1	    1.05000	    0.95000;
	33	 1	 0.0	 0.0	 0.0	 0.0	 1	    1.04397	   -8.11624	 400.0	 1	    1.05000	    0.95000;
	34	 1	 0.0	 0.0	 0.0	 0.0	 1	    1.03679	  -10.07104	 400.0	 1	    1.05000	    0.95000;
	35	 2	 32.16	 52.07	 0.0	 0.0	 1	    1.11000	   -0.86701	 220.0	 1	    1.11000	    0.95000;
	36	 2	 46.36	 92.07	 0.0	 0.0	 1	    1.11000	    0.76071	 220.0	 1	    1.11000	    0.95000;
	37	 3	 60.0	 120.0	 0.0	 0.0	 1	    1.05000	   -0.00000	 400.0	 1	    1.05000	    0.95000;
	38	 2	 60.0	 120.0	 0.0	 0.0	 1	    1.05000	    0.00337	 400.0	 1	    1.05000	    0.95000;
	39	 1	 0.0	 0.0	 0.0	 0.0	 1	    1.04603	  -10.70160	 220.0	 1	    1.11000	    0.95000;
	40	 1	 0.0	 0.0	 0.0	 0.0	 1	    1.04594	  -10.70629	 220.0	 1	    1.11000	    0.95000;
	41	 1	 0.0	 0.0	 0.0	 0.0	 1	    1.04626	   -2.65782	 400.0	 1	    1.05000	    0.95000;
	42	 1	 0.0	 0.0	 0.0	 0.0	 1	    1.04625	   -2.66051	 400.0	 1	    1.05000	    0.95000;
	43	 1	 0.0	 0.0	 0.0	 0.0	 1	    1.04396	  -10.01476	 220.0	 1	    1.11000	    0.95000;
	44	 1	 0.0	 0.0	 0.0	 0.0	 1	    1.03076	   -9.28791	 400.0	 1	    1.05000	    0.95000;
	45	 1	 0.0	 0.0	 0.0	 0.0	 1	    1.07835	   -5.13845	 220.0	 1	    1.11000	    0.95000;
	46	 1	 0.0	 0.0	 0.0	 0.0	 1	    1.07843	   -5.14017	 220.0	 1	    1.11000	    0.95000;
	47	 1	 0.0	 0.0	 0.0	 0.0	 1	    1.08082	   -4.58994	 220.0	 2	    1.11000	    0.95000;
	48	 1	 0.0	 0.0	 0.0	 0.0	 1	    1.07025	   -5.03596	 220.0	 2	    1.11000	    0.95000;
	49	 1	 0.0	 0.0	 0.0	 0.0	 1	    1.08282	   -3.66122	 220.0	 2	    1.11000	    0.95000;
	50	 1	 0.0	 0.0	 0.0	 0.0	 1	    1.08279	   -3.66572	 220.0	 2	    1.11000	    0.95000;
	51	 1	 0.0	 0.0	 0.0	 0.0	 1	    1.05891	   -5.45836	 220.0	 2	    1.11000	    0.95000;
	52	 1	 3.97	 1.0	 0.0	 0.0	 1	    1.09004	   -4.78131	 220.0	 2	    1.11000	    0.95000;
	53	 1	 0.0	 0.0	 0.0	 0.0	 1	    1.09008	   -4.77987	 220.0	 2	    1.11000	    0.95000;
	54	 1	 0.0	 0.0	 0.0	 0.0	 1	    1.02451	   -3.94160	 400.0	 2	    1.05000	    0.95000;
	55	 2	 13.0	 30.0	 0.0	 0.0	 1	    1.09988	   -2.21189	 220.0	 2	    1.11000	    0.95000;
	56	 2	 39.35	 90.07	 0.0	 0.0	 1	    1.09988	   -2.23039	 220.0	 2	    1.11000	    0.95000;
	57	 2	 26.0	 60.0	 0.0	 0.0	 1	    1.09998	   -2.18764	 220.0	 2	    1.11000	    0.95000;
	58	 2	 26.0	 50.0	 0.0	 0.0	 1	    1.05000	   -1.04570	 400.0	 2	    1.05000	    0.95000;
	59	 2	 26.0	 50.0	 0.0	 0.0	 1	    1.05000	   -1.03659	 400.0	 2	    1.05000	    0.95000;
	60	 1	 0.0	 0.0	 0.0	 0.0	 1	    1.08455	   -5.32957	 220.0	 2	    1.11000	    0.95000;
	61	 1	 0.0	 0.0	 0.0	 0.0	 1	    1.03156	   -3.44921	 400.0	 2	    1.05000	    0.95000;
	62	 1	 0.0	 0.0	 0.0	 0.0	 1	    1.03155	   -3.45034	 400.0	 2	    1.05000	    0.95000;
	63	 1	 0.0	 0.0	 0.0	 0.0	 1	    1.04491	   -2.51838	 400.0	 2	    1.05000	    0.95000;
	64	 1	 0.0	 0.0	 0.0	 0.0	 1	    1.06996	   -3.95846	 220.0	 2	    1.11000	    0.95000;
	65	 1	 0.0	 0.0	 0.0	 0.0	 1	    1.06995	   -3.95147	 220.0	 2	    1.11000	    0.95000;
	66	 1	 0.0	 0.0	 0.0	 0.0	 1	    1.03651	   -2.99685	 400.0	 2	    1.05000	    0.95000;
	67	 1	 0.0	 0.0	 0.0	 0.0	 1	    1.03647	   -3.00004	 400.0	 2	    1.05000	    0.95000;
	68	 2	 13.0	 30.0	 0.0	 0.0	 1	    1.08594	   -2.81797	 220.0	 2	    1.11000	    0.95000;
	69	 2	 26.0	 60.0	 0.0	 0.0	 1	    1.08578	   -2.80931	 220.0	 2	    1.11000	    0.95000;
	70	 2	 0.0	 2.25	 0.0	 0.0	 1	    1.03040	   -2.95255	 400.0	 2	    1.05000	    0.95000;
	71	 2	 26.0	 60.0	 0.0	 0.0	 1	    1.03046	   -2.94870	 400.0	 2	    1.05000	    0.95000;
	72	 1	 0.0	 0.0	 0.0	 0.0	 1	    1.08776	   -3.32786	 220.0	 2	    1.11000	    0.95000;
	73	 1	 0.0	 0.0	 0.0	 0.0	 1	    1.08776	   -3.32863	 220.0	 2	    1.11000	    0.95000;
	74	 1	 0.0	 0.0	 0.0	 0.0	 1	    1.08332	   -5.26700	 220.0	 2	    1.11000	    0.95000;
	75	 1	 0.0	 0.0	 0.0	 0.0	 1	    1.08336	   -5.26799	 220.0	 2	    1.11000	    0.95000;
	76	 1	 0.0	 0.0	 0.0	 0.0	 1	    1.09260	   -3.92199	 220.0	 2	    1.11000	    0.95000;
	77	 1	 0.0	 0.0	 0.0	 0.0	 1	    1.09260	   -3.91969	 220.0	 2	    1.11000	    0.95000;
	78	 1	 0.0	 0.0	 0.0	 0.0	 1	    1.03769	   -3.57955	 400.0	 2	    1.05000	    0.95000;
	79	 1	 0.0	 0.0	 0.0	 0.0	 1	    1.03766	   -3.58083	 400.0	 2	    1.05000	    0.95000;
	80	 1	 0.0	 0.0	 0.0	 0.0	 1	    1.08174	   -4.10805	 220.0	 2	    1.11000	    0.95000;
	81	 1	 0.0	 0.0	 0.0	 0.0	 1	    1.08250	   -4.07128	 220.0	 2	    1.11000	    0.95000;
	82	 1	 0.0	 0.0	 0.0	 0.0	 1	    1.07357	   -2.69023	 220.0	 2	    1.11000	    0.95000;
	83	 1	 0.0	 0.0	 0.0	 0.0	 1	    1.08573	   -3.94717	 220.0	 3	    1.11000	    0.95000;
	84	 1	 6.41	 2.01	 0.0	 0.0	 1	    1.07682	   -5.35575	 220.0	 3	    1.11000	    0.95000;
	85	 1	 13.89	 5.02	 0.0	 0.0	 1	    1.07661	   -5.36917	 220.0	 3	    1.11000	    0.95000;
	86	 1	 0.0	 0.0	 0.0	 0.0	 1	    1.08496	   -5.28153	 220.0	 3	    1.11000	    0.95000;
	87	 1	 0.0	 0.0	 0.0	 0.0	 1	    1.08507	   -5.26996	 220.0	 3	    1.11000	    0.95000;
	88	 1	 0.0	 0.0	 0.0	 0.0	 1	    1.09530	   -4.40423	 220.0	 3	    1.11000	    0.95000;
	89	 1	 0.0	 0.0	 0.0	 0.0	 1	    1.09535	   -4.40517	 220.0	 3	    1.11000	    0.95000;
	90	 1	 0.0	 0.0	 0.0	 0.0	 1	    1.05733	   -7.35001	 220.0	 3	    1.11000	    0.95000;
	91	 1	 0.0	 0.0	 0.0	 0.0	 1	    1.05710	   -7.35154	 220.0	 3	    1.11000	    0.95000;
	92	 2	 28.0	 70.0	 0.0	 0.0	 1	    1.09308	   -4.20960	 220.0	 3	    1.11000	    0.95000;
	93	 2	 28.0	 68.0	 0.0	 0.0	 1	    1.09203	   -4.09393	 220.0	 3	    1.11000	    0.95000;
	94	 1	 2.78	 1.91	 0.0	 0.0	 1	    1.07469	   -5.12524	 220.0	 3	    1.11000	    0.95000;
	95	 1	 0.0	 0.0	 0.0	 0.0	 1	    1.07471	   -5.12523	 220.0	 3	    1.11000	    0.95000;
	96	 2	 32.0	 142.0	 0.0	 0.0	 1	    1.03548	   -3.35174	 400.0	 3	    1.05000	    0.95000;
	97	 1	 0.0	 0.0	 0.0	 0.0	 1	    1.03557	   -3.36077	 400.0	 3	    1.05000	    0.95000;
	98	 1	 0.0	 0.0	 0.0	 0.0	 1	    1.03801	   -7.35492	 220.0	 3	    1.11000	    0.95000;
	99	 1	 0.0	 0.0	 0.0	 0.0	 1	    1.09214	   -4.47133	 220.0	 3	    1.11000	    0.95000;
	100	 1	 0.0	 0.0	 0.0	 0.0	 1	    1.09216	   -4.47138	 220.0	 3	    1.11000	    0.95000;
	101	 1	 38.8	 -2.7	 0.0	 0.0	 1	    1.08906	   -3.86433	 220.0	 3	    1.11000	    0.95000;
	102	 1	 0.0	 0.0	 0.0	 0.0	 1	    1.08903	   -3.86948	 220.0	 3	    1.11000	    0.95000;
	103	 1	 0.0	 0.0	 0.0	 0.0	 1	    1.08877	   -4.45187	 220.0	 3	    1.11000	    0.95000;
	104	 1	 0.0	 0.0	 0.0	 0.0	 1	    1.08872	   -4.45678	 220.0	 3	    1.11000	    0.95000;
	105	 1	 0.0	 0.0	 0.0	 0.0	 1	    1.09108	   -3.43731	 220.0	 3	    1.11000	    0.95000;
	106	 1	 0.0	 0.0	 0.0	 0.0	 1	    1.09109	   -3.43710	 220.0	 3	    1.11000	    0.95000;
	107	 1	 0.0	 0.0	 0.0	 0.0	 1	    1.04805	   -2.26012	 400.0	 3	    1.05000	    0.95000;
	108	 1	 0.0	 0.0	 0.0	 0.0	 1	    1.04806	   -2.25487	 400.0	 3	    1.05000	    0.95000;
	109	 1	 0.0	 0.0	 0.0	 0.0	 1	    1.09331	   -4.54372	 220.0	 3	    1.11000	    0.95000;
	110	 1	 0.0	 0.0	 0.0	 0.0	 1	    1.09330	   -4.54480	 220.0	 3	    1.11000	    0.95000;
	111	 1	 0.0	 0.0	 0.0	 0.0	 1	    1.06417	   -5.36232	 220.0	 3	    1.11000	    0.95000;
	112	 1	 0.0	 0.0	 0.0	 0.0	 1	    1.06405	   -5.37239	 220.0	 3	    1.11000	    0.95000;
	113	 2	 38.41	 12.71	 0.0	 0.0	 1	    1.08761	   -4.46438	 220.0	 3	    1.11000	    0.95000;
	114	 1	 0.0	 0.0	 0.0	 0.0	 1	    1.08760	   -4.46597	 220.0	 3	    1.11000	    0.95000;
	115	 1	 0.0	 0.0	 0.0	 0.0	 1	    1.07692	   -5.33747	 220.0	 3	    1.11000	    0.95000;
	116	 1	 0.0	 0.0	 0.0	 0.0	 1	    1.07694	   -5.34092	 220.0	 3	    1.11000	    0.95000;
	117	 1	 0.0	 0.0	 0.0	 0.0	 1	    1.04433	   -7.39944	 220.0	 3	    1.11000	    0.95000;
	118	 1	 0.0	 0.0	 0.0	 0.0	 1	    1.04425	   -7.39681	 220.0	 3	    1.11000	    0.95000;
	119	 2	 10.0	 44.0	 0.0	 0.0	 1	    1.09478	   -4.26817	 220.0	 3	    1.11000	    0.95000;
	120	 2	 10.0	 44.0	 0.0	 0.0	 1	    1.09494	   -4.28377	 220.0	 3	    1.11000	    0.95000;
	121	 2	 7.0	 18.0	 0.0	 0.0	 1	    1.09456	   -4.01262	 220.0	 3	    1.11000	    0.95000;
	122	 2	 8.0	 21.0	 0.0	 0.0	 1	    1.09460	   -4.01295	 220.0	 3	    1.11000	    0.95000;
	123	 1	 0.0	 0.0	 0.0	 0.0	 1	    1.08568	   -4.63700	 220.0	 3	    1.11000	    0.95000;
	124	 1	 59.4	 11.61	 0.0	 0.0	 1	    1.08569	   -4.64176	 220.0	 3	    1.11000	    0.95000;
	125	 1	 0.0	 0.0	 0.0	 0.0	 1	    1.04764	   -6.96464	 220.0	 3	    1.11000	    0.95000;
	126	 1	 0.0	 0.0	 0.0	 0.0	 1	    1.06938	   -5.04032	 220.0	 3	    1.11000	    0.95000;
	127	 1	 0.0	 0.0	 0.0	 0.0	 1	    1.06941	   -5.04065	 220.0	 3	    1.11000	    0.95000;
	128	 1	 0.0	 0.0	 0.0	 0.0	 1	    1.07620	   -5.12733	 220.0	 3	    1.11000	    0.95000;
	129	 1	 0.0	 0.0	 0.0	 0.0	 1	    1.07632	   -5.11997	 220.0	 3	    1.11000	    0.95000;
	130	 1	 0.0	 0.0	 0.0	 0.0	 1	    1.03699	   -3.30044	 400.0	 3	    1.05000	    0.95000;
	131	 1	 0.0	 0.0	 0.0	 0.0	 1	    1.03699	   -3.30044	 400.0	 3	    1.05000	    0.95000;
	132	 2	 0.0	 1.78	 0.0	 0.0	 1	    1.09080	   -4.60022	 220.0	 3	    1.11000	    0.95000;
	133	 2	 9.0	 20.0	 0.0	 0.0	 1	    1.09073	   -4.60043	 220.0	 3	    1.11000	    0.95000;
	134	 2	 6.0	 15.0	 0.0	 0.0	 1	    1.05942	   -5.88730	 220.0	 3	    1.11000	    0.95000;
	135	 1	 0.0	 0.0	 0.0	 0.0	 1	    1.05950	   -5.88723	 220.0	 3	    1.11000	    0.95000;
	136	 1	 0.0	 0.0	 0.0	 0.0	 1	    1.03608	   -3.62219	 400.0	 3	    1.05000	    0.95000;
	137	 1	 0.0	 0.0	 0.0	 0.0	 1	    1.03612	   -3.62117	 400.0	 3	    1.05000	    0.95000;
	138	 1	 0.0	 0.0	 0.0	 0.0	 1	    1.04687	   -3.19405	 400.0	 3	    1.05000	    0.95000;
	139	 1	 0.0	 0.0	 0.0	 0.0	 1	    1.04689	   -3.19010	 400.0	 3	    1.05000	    0.95000;
	140	 1	 0.0	 0.0	 0.0	 0.0	 1	    1.03972	   -7.20619	 220.0	 3	    1.11000	    0.95000;
	141	 1	 0.0	 0.0	 0.0	 0.0	 1	    1.03974	   -7.20224	 220.0	 3	    1.11000	    0.95000;
	142	 2	 18.2	 37.21	 0.0	 0.0	 1	    1.08415	   -3.80756	 220.0	 3	    1.11000	    0.95000;
	143	 2	 41.52	 73.01	 0.0	 0.0	 1	    1.08414	   -3.80595	 220.0	 3	    1.11000	    0.95000;
	144	 2	 28.0	 66.0	 0.0	 0.0	 1	    1.03551	   -2.48921	 400.0	 3	    1.05000	    0.95000;
	145	 1	 0.0	 0.0	 0.0	 0.0	 1	    1.03549	   -2.49870	 400.0	 3	    1.05000	    0.95000;
	146	 1	 0.0	 0.0	 0.0	 0.0	 1	    1.08824	   -3.97043	 220.0	 3	    1.11000	    0.95000;
	147	 1	 0.0	 0.0	 0.0	 0.0	 1	    1.08828	   -3.96688	 220.0	 3	    1.11000	    0.95000;
	148	 1	 0.0	 0.0	 0.0	 0.0	 1	    1.09229	   -4.26473	 220.0	 3	    1.11000	    0.95000;
	149	 1	 0.0	 0.0	 0.0	 0.0	 1	    1.08996	   -3.72783	 220.0	 3	    1.11000	    0.95000;
	150	 2	 0.0	 -0.79	 0.0	 0.0	 1	    1.05741	   -7.35058	 220.0	 3	    1.11000	    0.95000;
	151	 2	 0.0	 -0.79	 0.0	 0.0	 1	    1.05717	   -7.35212	 220.0	 3	    1.11000	    0.95000;
	152	 2	 7.7	 20.0	 0.0	 0.0	 1	    1.09886	   -5.77159	 220.0	 4	    1.11000	    0.95000;
	153	 2	 7.8	 20.0	 0.0	 0.0	 1	    1.09890	   -5.77430	 220.0	 4	    1.11000	    0.95000;
	154	 1	 0.0	 0.0	 0.0	 0.0	 1	    1.06086	  -12.90651	 220.0	 4	    1.11000	    0.95000;
	155	 1	 0.0	 0.0	 0.0	 0.0	 1	    1.06087	  -12.90681	 220.0	 4	    1.11000	    0.95000;
	156	 1	 0.0	 0.0	 0.0	 0.0	 1	    1.03948	  -13.64933	 220.0	 4	    1.11000	    0.95000;
	157	 1	 0.0	 0.0	 0.0	 0.0	 1	    1.07904	  -11.72258	 220.0	 4	    1.11000	    0.95000;
	158	 1	 0.0	 0.0	 0.0	 0.0	 1	    1.07895	  -11.72914	 220.0	 4	    1.11000	    0.95000;
	159	 1	 0.0	 0.0	 0.0	 0.0	 1	    1.03281	   -8.25271	 400.0	 4	    1.05000	    0.95000;
	160	 1	 0.0	 0.0	 0.0	 0.0	 1	    1.03279	   -8.25291	 400.0	 4	    1.05000	    0.95000;
	161	 1	 0.0	 0.0	 0.0	 0.0	 1	    1.04407	  -14.81490	 220.0	 4	    1.11000	    0.95000;
	162	 1	 0.0	 0.0	 0.0	 0.0	 1	    1.07375	  -20.07141	 220.0	 4	    1.11000	    0.95000;
	163	 1	 0.0	 0.0	 0.0	 0.0	 1	    1.07375	  -20.07141	 220.0	 4	    1.11000	    0.95000;
	164	 1	 0.0	 0.0	 0.0	 0.0	 1	    1.05810	  -19.70877	 220.0	 4	    1.11000	    0.95000;
	165	 1	 0.0	 0.0	 0.0	 0.0	 1	    1.05810	  -19.70877	 220.0	 4	    1.11000	    0.95000;
	166	 1	 0.0	 0.0	 0.0	 0.0	 1	    1.03595	  -13.79450	 220.0	 4	    1.11000	    0.95000;
	167	 2	 0.0	 -13.01	 0.0	 0.0	 1	    1.08875	   -8.03901	 220.0	 4	    1.11000	    0.95000;
	168	 1	 0.0	 0.0	 0.0	 0.0	 1	    1.08880	   -8.04433	 220.0	 4	    1.11000	    0.95000;
	169	 2	 12.0	 30.0	 0.0	 0.0	 1	    1.09716	  -18.85546	 220.0	 4	    1.11000	    0.95000;
	170	 2	 19.91	 36.57	 0.0	 0.0	 1	    1.09740	  -18.83317	 220.0	 4	    1.11000	    0.95000;
	171	 2	 12.0	 30.0	 0.0	 0.0	 1	    1.04966	  -13.10302	 400.0	 4	    1.05000	    0.95000;
	172	 2	 12.0	 30.0	 0.0	 0.0	 1	    1.04971	  -13.09604	 400.0	 4	    1.05000	    0.95000;
	173	 1	 0.0	 0.0	 0.0	 0.0	 1	    1.01213	  -17.20549	 220.0	 4	    1.11000	    0.95000;
	174	 1	 0.0	 0.0	 0.0	 0.0	 1	    1.01217	  -17.20477	 220.0	 4	    1.11000	    0.95000;
	175	 1	 0.0	 0.0	 0.0	 0.0	 1	    1.03891	  -17.67442	 220.0	 4	    1.11000	    0.95000;
	176	 1	 0.0	 0.0	 0.0	 0.0	 1	    1.03903	  -17.66681	 220.0	 4	    1.11000	    0.95000;
	177	 2	 30.5	 64.2	 0.0	 0.0	 1	    1.11000	   -8.90052	 220.0	 4	    1.11000	    0.95000;
	178	 2	 58.9	 96.0	 0.0	 0.0	 1	    1.11000	   -8.89991	 220.0	 4	    1.11000	    0.95000;
	179	 1	 0.0	 0.0	 0.0	 0.0	 1	    1.11000	   -8.89991	 220.0	 4	    1.11000	    0.95000;
	180	 2	 26.5	 64.2	 0.0	 0.0	 1	    1.04911	   -5.66122	 400.0	 4	    1.05000	    0.95000;
	181	 1	 0.0	 0.0	 0.0	 0.0	 1	    1.04907	   -5.66149	 400.0	 4	    1.05000	    0.95000;
	182	 1	 0.0	 0.0	 0.0	 0.0	 1	    1.07872	  -20.09592	 220.0	 4	    1.11000	    0.95000;
	183	 1	 0.0	 0.0	 0.0	 0.0	 1	    1.07872	  -20.09592	 220.0	 4	    1.11000	    0.95000;
	184	 1	 0.0	 0.0	 0.0	 0.0	 1	    1.03581	   -5.28483	 400.0	 4	    1.05000	    0.95000;
	185	 1	 0.0	 0.0	 0.0	 0.0	 1	    1.01732	  -10.78625	 400.0	 4	    1.05000	    0.95000;
	186	 1	 0.0	 0.0	 0.0	 0.0	 1	    1.03278	   -6.76064	 400.0	 4	    1.05000	    0.95000;
	187	 1	 0.0	 0.0	 0.0	 0.0	 1	    1.03281	   -6.75039	 400.0	 4	    1.05000	    0.95000;
	188	 2	 12.0	 30.0	 0.0	 0.0	 1	    1.09086	   -7.93637	 220.0	 4	    1.11000	    0.95000;
	189	 2	 23.8	 60.0	 0.0	 0.0	 1	    1.09082	   -7.95953	 220.0	 4	    1.11000	    0.95000;
	190	 2	 38.0	 64.0	 0.0	 0.0	 1	    1.01059	   -1.28111	 400.0	 4	    1.05000	    0.95000;
	191	 1	 0.0	 0.0	 0.0	 0.0	 1	    1.04177	  -19.71197	 220.0	 4	    1.11000	    0.95000;
	192	 1	 0.0	 0.0	 0.0	 0.0	 1	    1.04179	  -19.71620	 220.0	 4	    1.11000	    0.95000;
	193	 1	 0.0	 0.0	 0.0	 0.0	 1	    1.07226	  -20.14657	 220.0	 4	    1.11000	    0.95000;
	194	 1	 0.0	 0.0	 0.0	 0.0	 1	    1.07226	  -20.14760	 220.0	 4	    1.11000	    0.95000;
	195	 1	 0.0	 0.0	 0.0	 0.0	 1	    1.04920	  -15.27680	 220.0	 4	    1.11000	    0.95000;
	196	 1	 0.0	 0.0	 0.0	 0.0	 1	    1.04910	  -15.28318	 220.0	 4	    1.11000	    0.95000;
	197	 1	 0.0	 0.0	 0.0	 0.0	 1	    1.00955	  -12.42548	 400.0	 4	    1.05000	    0.95000;
	198	 1	 0.0	 0.0	 0.0	 0.0	 1	    1.03045	  -15.29798	 220.0	 4	    1.11000	    0.95000;
	199	 1	 0.0	 0.0	 0.0	 0.0	 1	    1.03046	  -15.29466	 220.0	 4	    1.11000	    0.95000;
	200	 1	 0.0	 0.0	 0.0	 0.0	 1	    1.03987	  -15.93854	 220.0	 4	    1.11000	    0.95000;
	201	 1	 0.0	 0.0	 0.0	 0.0	 1	    1.06109	  -12.50945	 220.0	 4	    1.11000	    0.95000;
	202	 1	 0.0	 0.0	 0.0	 0.0	 1	    1.06106	  -12.51623	 220.0	 4	    1.11000	    0.95000;
	203	 1	 0.0	 0.0	 0.0	 0.0	 1	    1.05103	  -11.54070	 220.0	 4	    1.11000	    0.95000;
	204	 2	 0.0	 -7.17	 0.0	 0.0	 1	    1.04028	  -17.68462	 220.0	 4	    1.11000	    0.95000;
	205	 1	 0.0	 0.0	 0.0	 0.0	 1	    1.01917	  -16.60248	 220.0	 4	    1.11000	    0.95000;
	206	 1	 0.0	 0.0	 0.0	 0.0	 1	    1.01921	  -16.59122	 220.0	 4	    1.11000	    0.95000;
	207	 1	 0.0	 0.0	 0.0	 0.0	 1	    1.05208	  -16.18878	 220.0	 5	    1.11000	    0.95000;
	208	 1	 0.0	 0.0	 0.0	 0.0	 1	    1.10759	  -16.17035	 220.0	 5	    1.11000	    0.95000;
	209	 1	 0.0	 0.0	 0.0	 0.0	 1	    1.04809	  -14.68025	 400.0	 5	    1.05000	    0.95000;
	210	 1	 0.0	 0.0	 0.0	 0.0	 1	    1.04812	  -14.67953	 400.0	 5	    1.05000	    0.95000;
	211	 1	 0.0	 0.0	 0.0	 0.0	 1	    1.03257	  -14.07532	 400.0	 5	    1.05000	    0.95000;
	212	 1	 0.0	 0.0	 0.0	 0.0	 1	    1.03256	  -14.07797	 400.0	 5	    1.05000	    0.95000;
	213	 1	 0.0	 0.0	 0.0	 0.0	 1	    1.03133	  -19.87187	 400.0	 5	    1.05000	    0.95000;
	214	 1	 0.0	 0.0	 0.0	 0.0	 1	    1.03657	  -18.69999	 220.0	 5	    1.11000	    0.95000;
	215	 1	 0.0	 0.0	 0.0	 0.0	 1	    1.03657	  -18.70369	 220.0	 5	    1.11000	    0.95000;
	216	 1	 0.0	 0.0	 0.0	 0.0	 1	    1.07178	  -15.54097	 220.0	 5	    1.11000	    0.95000;
	217	 1	 0.0	 0.0	 0.0	 0.0	 1	    1.07170	  -15.54590	 220.0	 5	    1.11000	    0.95000;
	218	 1	 0.0	 0.0	 0.0	 0.0	 1	    1.02729	  -13.28821	 400.0	 5	    1.05000	    0.95000;
	219	 1	 0.0	 0.0	 0.0	 0.0	 1	    1.02729	  -13.28821	 400.0	 5	    1.05000	    0.95000;
	220	 1	 0.0	 0.0	 0.0	 0.0	 1	    1.04774	  -17.83987	 400.0	 5	    1.05000	    0.95000;
	221	 1	 0.0	 0.0	 0.0	 0.0	 1	    1.05903	  -15.29013	 220.0	 5	    1.11000	    0.95000;
	222	 1	 0.0	 0.0	 0.0	 0.0	 1	    1.05900	  -15.29665	 220.0	 5	    1.11000	    0.95000;
	223	 1	 0.0	 0.0	 0.0	 0.0	 1	    1.06636	  -19.33458	 220.0	 5	    1.11000	    0.95000;
	224	 1	 0.0	 0.0	 0.0	 0.0	 1	    1.06688	  -15.79685	 220.0	 5	    1.11000	    0.95000;
	225	 1	 0.0	 0.0	 0.0	 0.0	 1	    1.03235	  -15.71154	 400.0	 5	    1.05000	    0.95000;
	226	 1	 0.0	 0.0	 0.0	 0.0	 1	    1.03232	  -15.71152	 400.0	 5	    1.05000	    0.95000;
	227	 1	 0.0	 0.0	 0.0	 0.0	 1	    1.04322	  -18.72898	 400.0	 5	    1.05000	    0.95000;
	228	 1	 0.0	 0.0	 0.0	 0.0	 1	    1.06008	  -15.80789	 220.0	 5	    1.11000	    0.95000;
	229	 1	 0.0	 0.0	 0.0	 0.0	 1	    1.06012	  -15.80172	 220.0	 5	    1.11000	    0.95000;
	230	 1	 0.0	 0.0	 0.0	 70.0	 1	    1.05000	  -14.09550	 400.0	 5	    1.05000	    0.95000;
	231	 1	 0.0	 0.0	 0.0	 0.0	 1	    1.05000	  -14.09786	 400.0	 5	    1.05000	    0.95000;
	232	 1	 0.0	 0.0	 0.0	 0.0	 1	    1.04065	  -16.21429	 220.0	 5	    1.11000	    0.95000;
	233	 1	 0.0	 0.0	 0.0	 0.0	 1	    1.04058	  -16.21267	 220.0	 5	    1.11000	    0.95000;
	234	 1	 0.0	 0.0	 0.0	 0.0	 1	    1.04290	  -14.33742	 220.0	 5	    1.11000	    0.95000;
	235	 1	 0.0	 0.0	 0.0	 0.0	 1	    1.04282	  -14.35070	 220.0	 5	    1.11000	    0.95000;
	236	 2	 11.0	 40.0	 0.0	 0.0	 1	    1.03207	  -12.50805	 400.0	 5	    1.05000	    0.95000;
	237	 2	 5.0	 10.0	 0.0	 0.0	 1	    1.03209	  -12.50867	 400.0	 5	    1.05000	    0.95000;
	238	 1	 0.0	 0.0	 0.0	 0.0	 1	    1.07433	  -18.06698	 220.0	 5	    1.11000	    0.95000;
	239	 1	 0.0	 0.0	 0.0	 0.0	 1	    1.07441	  -18.06097	 220.0	 5	    1.11000	    0.95000;
	240	 2	 8.0	 20.0	 0.0	 0.0	 0	    1.11000	    6.07667	 220.0	 0	    1.11000	    0.95000;
	241	 1	 9.86	 2.0	 0.0	 0.0	 1	    1.06651	  -16.08685	 110.0	 1	    1.12000	    0.95000;
	242	 1	 6.41	 0.0	 0.0	 0.0	 1	    1.07785	  -20.17439	 110.0	 1	    1.12000	    0.95000;
	243	 1	 9.37	 0.6	 0.0	 0.0	 1	    1.07782	  -20.17412	 110.0	 1	    1.12000	    0.95000;
	244	 1	 7.25	 4.0	 0.0	 0.0	 1	    1.10135	  -12.53939	 110.0	 1	    1.12000	    0.95000;
	245	 1	 0.0	 0.0	 0.0	 0.0	 1	    1.10135	  -12.55112	 110.0	 1	    1.12000	    0.95000;
	246	 1	 2.18	 2.4	 0.0	 0.0	 1	    1.04095	  -15.57407	 110.0	 1	    1.12000	    0.95000;
	247	 1	 5.12	 4.91	 0.0	 0.0	 1	    1.04091	  -15.57614	 110.0	 1	    1.12000	    0.95000;
	248	 1	 3.65	 0.9	 0.0	 0.0	 1	    1.09609	   -1.93745	 110.0	 1	    1.12000	    0.95000;
	249	 1	 3.85	 1.0	 0.0	 0.0	 1	    1.09851	   -2.03030	 110.0	 1	    1.12000	    0.95000;
	250	 2	 4.44	 -1.76	 0.0	 0.0	 1	    1.10237	  -15.88861	 110.0	 1	    1.12000	    0.95000;
	251	 2	 2.5	 0.0	 0.0	 0.0	 1	    1.10237	  -15.88289	 110.0	 1	    1.12000	    0.95000;
	252	 1	 17.76	 1.2	 0.0	 0.0	 1	    1.10345	  -15.76807	 110.0	 1	    1.12000	    0.95000;
	253	 1	 12.33	 2.1	 0.0	 0.0	 1	    1.10381	  -15.66485	 110.0	 1	    1.12000	    0.95000;
	254	 1	 7.41	 0.99	 0.0	 0.0	 1	    1.10379	  -15.67310	 110.0	 1	    1.12000	    0.95000;
	255	 1	 4.93	 0.0	 0.0	 0.0	 1	    1.10565	  -15.52775	 110.0	 1	    1.12000	    0.95000;
	256	 1	 4.93	 0.0	 0.0	 0.0	 1	    1.10559	  -15.54181	 110.0	 1	    1.12000	    0.95000;
	257	 1	 14.8	 2.5	 0.0	 0.0	 1	    1.10418	  -15.68789	 110.0	 1	    1.12000	    0.95000;
	258	 1	 5.42	 1.1	 0.0	 0.0	 1	    1.10294	  -15.82048	 110.0	 1	    1.12000	    0.95000;
	259	 1	 4.44	 1.0	 0.0	 0.0	 1	    1.10292	  -15.82441	 110.0	 1	    1.12000	    0.95000;
	260	 1	 2.96	 0.5	 0.0	 0.0	 1	    1.10234	  -15.90465	 110.0	 1	    1.12000	    0.95000;
	261	 1	 5.42	 0.6	 0.0	 0.0	 1	    1.10227	  -15.90497	 110.0	 1	    1.12000	    0.95000;
	262	 1	 0.0	 0.0	 0.0	 0.0	 1	    1.10418	  -15.92361	 110.0	 1	    1.12000	    0.95000;
	263	 1	 2.96	 0.9	 0.0	 0.0	 1	    1.07761	  -14.86990	 110.0	 1	    1.12000	    0.95000;
	264	 1	 5.33	 1.5	 0.0	 0.0	 1	    1.07771	  -14.86504	 110.0	 1	    1.12000	    0.95000;
	265	 1	 3.45	 0.7	 0.0	 0.0	 1	    1.08754	  -14.00236	 110.0	 1	    1.12000	    0.95000;
	266	 1	 3.45	 0.7	 0.0	 0.0	 1	    1.08749	  -14.01056	 110.0	 1	    1.12000	    0.95000;
	267	 2	 4.34	 1.8	 0.0	 0.0	 1	    1.09628	  -10.64335	 110.0	 1	    1.12000	    0.95000;
	268	 2	 4.34	 1.8	 0.0	 0.0	 1	    1.08091	   -8.57307	 110.0	 1	    1.12000	    0.95000;
	269	 1	 6.25	 2.0	 0.0	 0.0	 1	    1.09548	  -13.96367	 110.0	 1	    1.12000	    0.95000;
	270	 1	 6.69	 3.0	 0.0	 0.0	 1	    1.09551	  -13.96745	 110.0	 1	    1.12000	    0.95000;
	271	 1	 0.49	 0.2	 0.0	 0.0	 1	    1.08580	   -4.48268	 110.0	 1	    1.12000	    0.95000;
	272	 1	 0.79	 0.2	 0.0	 0.0	 1	    1.08573	   -4.49878	 110.0	 1	    1.12000	    0.95000;
	273	 1	 1.18	 -0.9	 0.0	 0.0	 1	    1.09726	   -0.37604	 110.0	 1	    1.12000	    0.95000;
	274	 1	 4.74	 0.5	 0.0	 0.0	 1	    1.10177	  -14.27031	 110.0	 1	    1.12000	    0.95000;
	275	 1	 0.0	 0.0	 0.0	 0.0	 1	    1.10175	  -14.28908	 110.0	 1	    1.12000	    0.95000;
	276	 1	 3.16	 0.1	 0.0	 0.0	 1	    1.09068	  -16.69393	 110.0	 1	    1.12000	    0.95000;
	277	 1	 7.4	 1.3	 0.0	 0.0	 1	    1.08710	  -16.24575	 110.0	 1	    1.12000	    0.95000;
	278	 1	 10.36	 1.3	 0.0	 0.0	 1	    1.08701	  -16.25111	 110.0	 1	    1.12000	    0.95000;
	279	 1	 2.27	 1.11	 0.0	 0.0	 1	    1.11485	   -6.45859	 110.0	 1	    1.12000	    0.95000;
	280	 1	 5.33	 1.6	 0.0	 0.0	 1	    1.09669	  -14.49980	 110.0	 1	    1.12000	    0.95000;
	281	 1	 2.07	 0.1	 0.0	 0.0	 1	    1.09674	  -14.49069	 110.0	 1	    1.12000	    0.95000;
	282	 2	 1.87	 0.09	 0.0	 0.0	 1	    1.10726	   -7.47028	 110.0	 1	    1.12000	    0.95000;
	283	 2	 1.87	 0.31	 0.0	 0.0	 1	    1.10706	   -7.49155	 110.0	 1	    1.12000	    0.95000;
	284	 1	 8.58	 3.0	 0.0	 0.0	 1	    1.08619	  -14.65064	 110.0	 1	    1.12000	    0.95000;
	285	 1	 1.58	 0.4	 0.0	 0.0	 1	    1.09896	   -1.97078	 110.0	 1	    1.12000	    0.95000;
	286	 1	 4.44	 1.1	 0.0	 0.0	 1	    1.09894	   -1.97461	 110.0	 1	    1.12000	    0.95000;
	287	 1	 5.33	 0.5	 0.0	 0.0	 1	    1.07386	   -7.80237	 110.0	 1	    1.12000	    0.95000;
	288	 1	 4.64	 0.4	 0.0	 0.0	 1	    1.07387	   -7.79602	 110.0	 1	    1.12000	    0.95000;
	289	 1	 13.89	 7.76	 0.0	 0.0	 1	    1.08773	   -1.66387	 110.0	 1	    1.12000	    0.95000;
	290	 1	 19.52	 11.23	 0.0	 0.0	 1	    1.08768	   -1.67967	 110.0	 1	    1.12000	    0.95000;
	291	 1	 6.81	 0.5	 0.0	 0.0	 1	    1.08484	  -15.96723	 110.0	 1	    1.12000	    0.95000;
	292	 1	 9.57	 3.84	 0.0	 0.0	 1	    1.11587	   -6.44136	 110.0	 1	    1.12000	    0.95000;
	293	 1	 0.0	 0.0	 0.0	 0.0	 1	    1.11587	   -6.43988	 110.0	 1	    1.12000	    0.95000;
	294	 1	 8.38	 0.8	 0.0	 0.0	 1	    1.08332	  -16.06007	 110.0	 1	    1.12000	    0.95000;
	295	 1	 0.0	 0.0	 0.0	 0.0	 1	    1.08337	  -16.06784	 110.0	 1	    1.12000	    0.95000;
	296	 1	 3.95	 0.4	 0.0	 0.0	 1	    1.08055	  -15.51660	 110.0	 1	    1.12000	    0.95000;
	297	 1	 5.42	 0.6	 0.0	 0.0	 1	    1.07489	  -15.14532	 110.0	 1	    1.12000	    0.95000;
	298	 1	 2.47	 0.3	 0.0	 0.0	 1	    1.07482	  -15.14228	 110.0	 1	    1.12000	    0.95000;
	299	 1	 0.0	 0.0	 0.0	 0.0	 1	    1.09301	  -17.29235	 110.0	 1	    1.12000	    0.95000;
	300	 1	 0.49	 0.2	 0.0	 0.0	 1	    1.09302	  -17.30508	 110.0	 1	    1.12000	    0.95000;
	301	 2	 0.17	 0.3	 0.0	 0.0	 1	    1.08116	  -14.53778	 110.0	 1	    1.12000	    0.95000;
	302	 2	 0.06	 0.1	 0.0	 0.0	 1	    1.08116	  -14.53862	 110.0	 1	    1.12000	    0.95000;
	303	 1	 5.92	 0.7	 0.0	 0.0	 1	    1.08015	  -19.39656	 110.0	 1	    1.12000	    0.95000;
	304	 1	 0.3	 0.1	 0.0	 0.0	 1	    1.10172	   -5.23794	 110.0	 1	    1.12000	    0.95000;
	305	 1	 0.4	 0.1	 0.0	 0.0	 1	    1.09962	   -5.49036	 110.0	 1	    1.12000	    0.95000;
	306	 1	 10.06	 7.01	 0.0	 0.0	 1	    1.09987	   -5.29121	 110.0	 1	    1.12000	    0.95000;
	307	 1	 0.49	 0.2	 0.0	 0.0	 1	    1.09960	   -5.49105	 110.0	 1	    1.12000	    0.95000;
	308	 1	 8.09	 1.3	 0.0	 0.0	 1	    1.08277	  -18.41566	 110.0	 1	    1.12000	    0.95000;
	309	 1	 4.74	 0.4	 0.0	 0.0	 1	    1.08278	  -18.42079	 110.0	 1	    1.12000	    0.95000;
	310	 1	 4.74	 1.74	 0.0	 0.0	 1	    1.10680	   -7.24850	 110.0	 1	    1.12000	    0.95000;
	311	 1	 2.86	 -1.4	 0.0	 0.0	 1	    1.10043	   -5.44238	 110.0	 1	    1.12000	    0.95000;
	312	 1	 2.86	 -1.4	 0.0	 0.0	 1	    1.10047	   -5.42668	 110.0	 1	    1.12000	    0.95000;
	313	 1	 3.08	 2.0	 0.0	 0.0	 1	    1.09017	  -10.30982	 110.0	 1	    1.12000	    0.95000;
	314	 1	 0.0	 0.0	 0.0	 0.0	 1	    1.09672	   -0.33748	 110.0	 1	    1.12000	    0.95000;
	315	 1	 0.0	 0.0	 0.0	 0.0	 1	    1.09678	   -0.36611	 110.0	 1	    1.12000	    0.95000;
	316	 2	 20.0	 40.0	 0.0	 0.0	 1	    1.00661	    3.34916	 24.0	 1	    1.12000	    0.95000;
	317	 1	 4.93	 1.0	 0.0	 0.0	 1	    1.08896	  -18.01627	 110.0	 1	    1.12000	    0.95000;
	318	 1	 2.96	 0.7	 0.0	 0.0	 1	    1.08897	  -18.03097	 110.0	 1	    1.12000	    0.95000;
	319	 1	 3.95	 1.0	 0.0	 0.0	 1	    1.09601	  -17.93191	 110.0	 1	    1.12000	    0.95000;
	320	 1	 1.48	 0.2	 0.0	 0.0	 1	    1.09588	  -17.13061	 110.0	 1	    1.12000	    0.95000;
	321	 1	 0.0	 0.0	 0.0	 45.0	 1	    1.11996	  -17.50009	 16.0	 1	    1.12000	    0.95000;
	322	 2	 0.0	 -3.42	 0.0	 0.0	 1	    1.07221	  -11.53987	 110.0	 1	    1.12000	    0.95000;
	323	 1	 5.42	 1.0	 0.0	 0.0	 1	    1.10264	  -15.86328	 110.0	 1	    1.12000	    0.95000;