%%%%%%%%%%%%%%%%%%%%%%%%%%%%%%%%%%%%%%%%%%%%%%%%%%%%%%%%%%%%%%%%%%%%%%%%%%%
%%%%                                                                  %%%%%
%%%%    IEEE PES Power Grid Library - Optimal Power Flow - v17.07     %%%%%
%%%%          (https://github.com/power-grid-lib/pglib-opf)           %%%%%
%%%%             Benchmark Group - Small Angle Difference             %%%%%
%%%%                         27 - June - 2017                         %%%%%
%%%%                                                                  %%%%%
%%%%%%%%%%%%%%%%%%%%%%%%%%%%%%%%%%%%%%%%%%%%%%%%%%%%%%%%%%%%%%%%%%%%%%%%%%%
function mpc = pglib_opf_case2746wp_mp__sad
mpc.version = '2';
mpc.baseMVA = 100.0;

%% area data
%	area	refbus
mpc.areas = [
	1	 18;
];

%% bus data
%	bus_i	type	Pd	Qd	Gs	Bs	area	Vm	Va	baseKV	zone	Vmax	Vmin
mpc.bus = [
	1	 1	 0.0	 0.0	 0.0	 0.0	 1	    1.10076	    0.08288	 220.0	 1	    1.11000	    0.95000;
	2	 1	 0.0	 0.0	 0.0	 0.0	 1	    1.10238	    1.95464	 220.0	 1	    1.11000	    0.95000;
	3	 1	 0.0	 0.0	 0.0	 0.0	 1	    1.06565	  -14.10810	 220.0	 1	    1.11000	    0.95000;
	4	 1	 0.0	 0.0	 0.0	 0.0	 1	    1.08934	   -3.49381	 220.0	 1	    1.11000	    0.95000;
	5	 1	 0.0	 0.0	 0.0	 0.0	 1	    1.08939	   -3.49470	 220.0	 1	    1.11000	    0.95000;
	6	 1	 0.0	 0.0	 0.0	 0.0	 1	    1.06310	  -11.09193	 220.0	 1	    1.11000	    0.95000;
	7	 1	 0.0	 0.0	 0.0	 0.0	 1	    1.06326	  -11.07999	 220.0	 1	    1.11000	    0.95000;
	8	 1	 0.0	 0.0	 0.0	 0.0	 1	    1.03479	   -8.00769	 400.0	 1	    1.05000	    0.95000;
	9	 1	 0.0	 0.0	 0.0	 0.0	 1	    1.03478	   -8.00261	 400.0	 1	    1.05000	    0.95000;
	10	 1	 0.0	 0.0	 0.0	 0.0	 1	    1.04377	  -11.74311	 220.0	 1	    1.11000	    0.95000;
	11	 1	 0.0	 0.0	 0.0	 0.0	 1	    1.04368	  -11.73438	 220.0	 1	    1.11000	    0.95000;
	12	 1	 0.0	 0.0	 0.0	 0.0	 1	    1.04369	  -11.72401	 220.0	 1	    1.11000	    0.95000;
	13	 1	 0.0	 0.0	 0.0	 0.0	 1	    1.03645	   -7.34973	 400.0	 1	    1.05000	    0.95000;
	14	 1	 0.0	 0.0	 0.0	 0.0	 1	    1.03649	   -7.34134	 400.0	 1	    1.05000	    0.95000;
	15	 1	 0.0	 0.0	 0.0	 0.0	 1	    1.03357	   -9.83626	 400.0	 1	    1.05000	    0.95000;
	16	 1	 0.0	 0.0	 0.0	 0.0	 1	    1.03357	   -9.83626	 400.0	 1	    1.05000	    0.95000;
	17	 2	 11.0	 40.0	 0.0	 0.0	 1	    1.10604	   -8.39419	 220.0	 1	    1.11000	    0.95000;
	18	 2	 14.0	 40.0	 0.0	 0.0	 1	    1.10610	   -8.38492	 220.0	 1	    1.11000	    0.95000;
	19	 1	 0.0	 0.0	 0.0	 0.0	 1	    1.09344	   -2.57388	 220.0	 1	    1.11000	    0.95000;
	20	 1	 0.0	 0.0	 0.0	 0.0	 1	    1.09347	   -2.56798	 220.0	 1	    1.11000	    0.95000;
	21	 1	 0.0	 0.0	 0.0	 0.0	 1	    1.06106	  -12.36461	 220.0	 1	    1.11000	    0.95000;
	22	 1	 0.0	 0.0	 0.0	 0.0	 1	    1.06100	  -12.36794	 220.0	 1	    1.11000	    0.95000;
	23	 1	 0.0	 0.0	 0.0	 0.0	 1	    1.04666	  -11.61931	 220.0	 1	    1.11000	    0.95000;
	24	 1	 0.0	 0.0	 0.0	 0.0	 1	    1.09530	   -1.21039	 220.0	 1	    1.11000	    0.95000;
	25	 1	 0.0	 0.0	 0.0	 0.0	 1	    1.02454	   -8.24057	 400.0	 1	    1.05000	    0.95000;
	26	 2	 46.738	 72.054	 0.0	 0.0	 1	    1.11000	    0.43980	 220.0	 1	    1.11000	    0.95000;
	27	 2	 85.493	 122.06	 0.0	 0.0	 1	    1.11000	    2.29713	 220.0	 1	    1.11000	    0.95000;
	28	 3	 60.0	 110.0	 0.0	 0.0	 1	    1.04996	    0.00000	 400.0	 1	    1.05000	    0.95000;
	29	 2	 60.097	 90.0	 0.0	 0.0	 1	    1.05000	    0.00721	 400.0	 1	    1.05000	    0.95000;
	30	 1	 0.0	 0.0	 0.0	 0.0	 1	    1.04890	  -12.13047	 220.0	 1	    1.11000	    0.95000;
	31	 1	 0.0	 0.0	 0.0	 0.0	 1	    1.04817	   -1.65069	 400.0	 1	    1.05000	    0.95000;
	32	 1	 0.0	 0.0	 0.0	 0.0	 1	    1.04139	  -12.07943	 220.0	 1	    1.11000	    0.95000;
	33	 1	 0.0	 0.0	 0.0	 0.0	 1	    1.09530	   -1.20926	 220.0	 1	    1.11000	    0.95000;
	34	 1	 0.0	 0.0	 0.0	 0.0	 1	    1.09454	   -5.23562	 220.0	 1	    1.11000	    0.95000;
	35	 1	 0.0	 0.0	 0.0	 0.0	 1	    1.08836	   -7.57950	 220.0	 2	    1.11000	    0.95000;
	36	 1	 0.0	 0.0	 0.0	 0.0	 1	    1.09121	   -8.54041	 220.0	 2	    1.11000	    0.95000;
	37	 1	 0.0	 0.0	 0.0	 0.0	 1	    1.09818	   -6.51639	 220.0	 2	    1.11000	    0.95000;
	38	 1	 0.0	 0.0	 0.0	 0.0	 1	    1.09816	   -6.52237	 220.0	 2	    1.11000	    0.95000;
	39	 1	 0.0	 0.0	 0.0	 0.0	 1	    1.07453	  -10.13195	 220.0	 2	    1.11000	    0.95000;
	40	 1	 0.0	 0.0	 0.0	 0.0	 1	    1.10662	   -7.14091	 220.0	 2	    1.11000	    0.95000;
	41	 1	 0.0	 0.0	 0.0	 0.0	 1	    1.10659	   -7.14669	 220.0	 2	    1.11000	    0.95000;
	42	 1	 0.0	 0.0	 0.0	 0.0	 1	    1.04486	   -6.67352	 400.0	 2	    1.05000	    0.95000;
	43	 2	 11.436	 0.0	 0.0	 0.0	 1	    1.11000	   -4.21588	 220.0	 2	    1.11000	    0.95000;
	44	 2	 24.0	 0.0	 0.0	 0.0	 1	    1.10994	   -4.19154	 220.0	 2	    1.11000	    0.95000;
	45	 2	 20.0	 0.0	 0.0	 0.0	 1	    1.04870	   -5.24623	 400.0	 2	    1.05000	    0.95000;
	46	 1	 0.0	 0.0	 0.0	 0.0	 1	    1.04873	   -5.24656	 400.0	 2	    1.05000	    0.95000;
	47	 1	 0.0	 0.0	 0.0	 0.0	 1	    1.10280	   -7.66274	 220.0	 2	    1.11000	    0.95000;
	48	 1	 0.0	 0.0	 0.0	 0.0	 1	    1.03508	  -12.28786	 400.0	 2	    1.05000	    0.95000;
	49	 1	 0.0	 0.0	 0.0	 0.0	 1	    1.03505	  -12.29677	 400.0	 2	    1.05000	    0.95000;
	50	 1	 0.0	 0.0	 0.0	 0.0	 1	    1.05000	   -6.24158	 400.0	 2	    1.05000	    0.95000;
	51	 1	 0.0	 0.0	 0.0	 0.0	 1	    1.08162	   -9.02885	 220.0	 2	    1.11000	    0.95000;
	52	 1	 0.0	 0.0	 0.0	 0.0	 1	    1.08161	   -9.02809	 220.0	 2	    1.11000	    0.95000;
	53	 1	 0.0	 0.0	 0.0	 0.0	 1	    1.04484	   -6.59590	 400.0	 2	    1.05000	    0.95000;
	54	 1	 0.0	 0.0	 0.0	 0.0	 1	    1.04484	   -6.59646	 400.0	 2	    1.05000	    0.95000;
	55	 2	 12.0	 0.0	 0.0	 0.0	 1	    1.10387	   -5.05923	 220.0	 2	    1.11000	    0.95000;
	56	 2	 11.436	 0.0	 0.0	 0.0	 1	    1.10379	   -5.04719	 220.0	 2	    1.11000	    0.95000;
	57	 2	 12.0	 0.0	 0.0	 0.0	 1	    1.04688	   -6.08180	 400.0	 2	    1.05000	    0.95000;
	58	 2	 11.436	 0.0	 0.0	 0.0	 1	    1.04690	   -6.08561	 400.0	 2	    1.05000	    0.95000;
	59	 2	 167.518	 60.0	 0.0	 0.0	 1	    1.09795	   -5.80690	 220.0	 2	    1.11000	    0.95000;
	60	 1	 0.0	 0.0	 0.0	 0.0	 1	    1.09799	   -5.80606	 220.0	 2	    1.11000	    0.95000;
	61	 1	 0.0	 0.0	 0.0	 0.0	 1	    1.10262	   -7.55700	 220.0	 2	    1.11000	    0.95000;
	62	 1	 0.0	 0.0	 0.0	 0.0	 1	    1.10387	   -6.10658	 220.0	 2	    1.11000	    0.95000;
	63	 1	 0.0	 0.0	 0.0	 0.0	 1	    1.10385	   -6.10462	 220.0	 2	    1.11000	    0.95000;
	64	 1	 0.0	 0.0	 0.0	 0.0	 1	    1.04716	   -8.56241	 400.0	 2	    1.05000	    0.95000;
	65	 1	 0.0	 0.0	 0.0	 0.0	 1	    1.04715	   -8.57801	 400.0	 2	    1.05000	    0.95000;
	66	 1	 0.0	 0.0	 0.0	 0.0	 1	    1.09140	   -7.49117	 220.0	 2	    1.11000	    0.95000;
	67	 1	 0.0	 0.0	 0.0	 0.0	 1	    1.09302	   -7.32255	 220.0	 2	    1.11000	    0.95000;
	68	 1	 0.0	 0.0	 0.0	 0.0	 1	    1.08175	   -8.50041	 220.0	 2	    1.11000	    0.95000;
	69	 1	 0.0	 0.0	 0.0	 0.0	 1	    1.09995	   -5.48696	 220.0	 3	    1.11000	    0.95000;
	70	 1	 7.123	 0.0	 0.0	 0.0	 1	    1.09785	   -9.09526	 220.0	 3	    1.11000	    0.95000;
	71	 1	 8.31	 0.933	 0.0	 0.0	 1	    1.09782	   -9.09022	 220.0	 3	    1.11000	    0.95000;
	72	 1	 0.0	 0.0	 0.0	 0.0	 1	    1.10298	   -9.58759	 220.0	 3	    1.11000	    0.95000;
	73	 1	 0.0	 0.0	 0.0	 0.0	 1	    1.10304	   -9.57694	 220.0	 3	    1.11000	    0.95000;
	74	 1	 0.0	 0.0	 0.0	 0.0	 1	    1.10153	   -8.96868	 220.0	 3	    1.11000	    0.95000;
	75	 1	 0.0	 0.0	 0.0	 0.0	 1	    1.10148	   -8.97301	 220.0	 3	    1.11000	    0.95000;
	76	 1	 0.0	 0.0	 0.0	 0.0	 1	    1.10817	   -8.47765	 220.0	 3	    1.11000	    0.95000;
	77	 1	 0.0	 0.0	 0.0	 0.0	 1	    1.10813	   -8.48747	 220.0	 3	    1.11000	    0.95000;
	78	 2	 27.0	 70.0	 0.0	 0.0	 1	    1.10767	   -8.86329	 220.0	 3	    1.11000	    0.95000;
	79	 2	 9.0	 21.0	 0.0	 0.0	 1	    1.10752	   -8.51248	 220.0	 3	    1.11000	    0.95000;
	80	 1	 10.328	 2.61	 0.0	 0.0	 1	    1.09653	  -10.08821	 220.0	 3	    1.11000	    0.95000;
	81	 1	 0.0	 0.0	 0.0	 0.0	 1	    1.09654	  -10.08874	 220.0	 3	    1.11000	    0.95000;
	82	 2	 35.0	 108.0	 0.0	 0.0	 1	    1.04259	   -4.96457	 400.0	 3	    1.05000	    0.95000;
	83	 1	 0.0	 0.0	 0.0	 0.0	 1	    1.09929	   -7.55268	 220.0	 3	    1.11000	    0.95000;
	84	 1	 0.0	 0.0	 0.0	 0.0	 1	    1.10545	   -9.06887	 220.0	 3	    1.11000	    0.95000;
	85	 1	 0.0	 0.0	 0.0	 0.0	 1	    1.10545	   -9.06862	 220.0	 3	    1.11000	    0.95000;
	86	 1	 37.893	 12.351	 0.0	 0.0	 1	    1.10060	   -5.57795	 220.0	 3	    1.11000	    0.95000;
	87	 1	 0.0	 0.0	 0.0	 0.0	 1	    1.10057	   -5.58767	 220.0	 3	    1.11000	    0.95000;
	88	 1	 0.0	 0.0	 0.0	 0.0	 1	    1.10400	   -8.72684	 220.0	 3	    1.11000	    0.95000;
	89	 1	 0.0	 0.0	 0.0	 0.0	 1	    1.10394	   -8.73270	 220.0	 3	    1.11000	    0.95000;
	90	 1	 0.0	 0.0	 0.0	 0.0	 1	    1.10399	   -4.95710	 220.0	 3	    1.11000	    0.95000;
	91	 1	 0.0	 0.0	 0.0	 0.0	 1	    1.10397	   -4.95774	 220.0	 3	    1.11000	    0.95000;
	92	 1	 0.0	 0.0	 0.0	 0.0	 1	    1.04625	   -3.01197	 400.0	 3	    1.05000	    0.95000;
	93	 1	 0.0	 0.0	 0.0	 0.0	 1	    1.04625	   -3.01500	 400.0	 3	    1.05000	    0.95000;
	94	 1	 0.0	 0.0	 0.0	 0.0	 1	    1.10821	   -8.73841	 220.0	 3	    1.11000	    0.95000;
	95	 1	 0.0	 0.0	 0.0	 0.0	 1	    1.10826	   -8.74156	 220.0	 3	    1.11000	    0.95000;
	96	 1	 0.0	 0.0	 0.0	 0.0	 1	    1.10118	   -8.52962	 220.0	 3	    1.11000	    0.95000;
	97	 1	 0.0	 0.0	 0.0	 0.0	 1	    1.10118	   -8.52486	 220.0	 3	    1.11000	    0.95000;
	98	 1	 16.027	 7.274	 0.0	 0.0	 1	    1.10420	   -8.13189	 220.0	 3	    1.11000	    0.95000;
	99	 1	 7.764	 0.258	 0.0	 0.0	 1	    1.10418	   -8.12721	 220.0	 3	    1.11000	    0.95000;
	100	 1	 0.0	 0.0	 0.0	 0.0	 1	    1.09790	   -9.07114	 220.0	 3	    1.11000	    0.95000;
	101	 1	 0.0	 0.0	 0.0	 0.0	 1	    1.09788	   -9.07859	 220.0	 3	    1.11000	    0.95000;
	102	 1	 0.0	 0.0	 0.0	 0.0	 1	    1.10254	   -9.64298	 220.0	 3	    1.11000	    0.95000;
	103	 1	 0.0	 0.0	 0.0	 0.0	 1	    1.10247	   -9.65404	 220.0	 3	    1.11000	    0.95000;
	104	 2	 14.0	 40.0	 0.0	 0.0	 1	    1.11000	   -8.81131	 220.0	 3	    1.11000	    0.95000;
	105	 2	 14.0	 40.0	 0.0	 0.0	 1	    1.11000	   -8.81970	 220.0	 3	    1.11000	    0.95000;
	106	 2	 7.0	 18.0	 0.0	 0.0	 1	    1.10956	   -8.22869	 220.0	 3	    1.11000	    0.95000;
	107	 2	 8.0	 15.0	 0.0	 0.0	 1	    1.10959	   -8.22296	 220.0	 3	    1.11000	    0.95000;
	108	 1	 1.044	 0.0	 0.0	 0.0	 1	    1.10231	   -7.49904	 220.0	 3	    1.11000	    0.95000;
	109	 1	 1.259	 0.0	 0.0	 0.0	 1	    1.10235	   -7.50378	 220.0	 3	    1.11000	    0.95000;
	110	 1	 0.0	 0.0	 0.0	 0.0	 1	    1.09855	  -10.75000	 220.0	 3	    1.11000	    0.95000;
	111	 1	 0.0	 0.0	 0.0	 0.0	 1	    1.09508	   -9.76399	 220.0	 3	    1.11000	    0.95000;
	112	 1	 0.0	 0.0	 0.0	 0.0	 1	    1.09509	   -9.76559	 220.0	 3	    1.11000	    0.95000;
	113	 1	 0.0	 0.0	 0.0	 0.0	 1	    1.09696	  -10.12607	 220.0	 3	    1.11000	    0.95000;
	114	 1	 0.0	 0.0	 0.0	 0.0	 1	    1.09703	  -10.11651	 220.0	 3	    1.11000	    0.95000;
	115	 1	 0.0	 0.0	 0.0	 0.0	 1	    1.04240	   -7.45523	 400.0	 3	    1.05000	    0.95000;
	116	 2	 0.0	 0.0	 0.0	 0.0	 1	    1.10496	   -8.80898	 220.0	 3	    1.11000	    0.95000;
	117	 2	 8.0	 15.0	 0.0	 0.0	 1	    1.10498	   -8.80599	 220.0	 3	    1.11000	    0.95000;
	118	 2	 5.5	 10.0	 0.0	 0.0	 1	    1.10398	   -9.93832	 220.0	 3	    1.11000	    0.95000;
	119	 1	 0.0	 0.0	 0.0	 0.0	 1	    1.10394	   -9.94457	 220.0	 3	    1.11000	    0.95000;
	120	 1	 0.0	 0.0	 0.0	 0.0	 1	    1.04868	   -7.81366	 400.0	 3	    1.05000	    0.95000;
	121	 1	 0.0	 0.0	 0.0	 0.0	 1	    1.04872	   -7.80638	 400.0	 3	    1.05000	    0.95000;
	122	 1	 0.0	 0.0	 0.0	 0.0	 1	    1.04998	   -6.63807	 400.0	 3	    1.05000	    0.95000;
	123	 1	 0.0	 0.0	 0.0	 0.0	 1	    1.05000	   -6.62734	 400.0	 3	    1.05000	    0.95000;
	124	 1	 0.0	 0.0	 0.0	 0.0	 1	    1.09879	  -10.84364	 220.0	 3	    1.11000	    0.95000;
	125	 2	 18.343	 21.865	 0.0	 0.0	 1	    1.11000	   -8.11795	 220.0	 3	    1.11000	    0.95000;
	126	 2	 28.469	 34.292	 0.0	 0.0	 1	    1.10994	   -8.12446	 220.0	 3	    1.11000	    0.95000;
	127	 2	 28.0	 66.0	 0.0	 0.0	 1	    1.04077	   -7.29667	 400.0	 3	    1.05000	    0.95000;
	128	 1	 0.0	 0.0	 0.0	 0.0	 1	    1.04079	   -7.29948	 400.0	 3	    1.05000	    0.95000;
	129	 1	 0.0	 0.0	 0.0	 0.0	 1	    1.09978	   -5.78025	 220.0	 3	    1.11000	    0.95000;
	130	 1	 0.0	 0.0	 0.0	 0.0	 1	    1.09981	   -5.78167	 220.0	 3	    1.11000	    0.95000;
	131	 1	 0.0	 0.0	 0.0	 0.0	 1	    1.10216	   -5.55116	 220.0	 3	    1.11000	    0.95000;
	132	 2	 3.0	 18.0	 0.0	 0.0	 1	    1.11000	   -7.75995	 220.0	 3	    1.11000	    0.95000;
	133	 2	 2.0	 6.0	 0.0	 0.0	 1	    1.11000	   -8.13543	 220.0	 3	    1.11000	    0.95000;
	134	 2	 15.447	 12.88	 0.0	 0.0	 1	    1.11000	   -4.94345	 220.0	 4	    1.11000	    0.95000;
	135	 2	 5.255	 -0.357	 0.0	 0.0	 1	    1.10990	   -4.95344	 220.0	 4	    1.11000	    0.95000;
	136	 1	 0.0	 0.0	 0.0	 0.0	 1	    1.07653	   -7.72156	 220.0	 4	    1.11000	    0.95000;
	137	 1	 0.0	 0.0	 0.0	 0.0	 1	    1.08329	   -5.33117	 220.0	 4	    1.11000	    0.95000;
	138	 1	 0.0	 0.0	 0.0	 0.0	 1	    1.02192	   -5.69238	 400.0	 4	    1.05000	    0.95000;
	139	 1	 0.0	 0.0	 0.0	 0.0	 1	    1.02193	   -5.70027	 400.0	 4	    1.05000	    0.95000;
	140	 1	 0.0	 0.0	 0.0	 0.0	 1	    1.09720	  -10.43261	 220.0	 4	    1.11000	    0.95000;
	141	 1	 0.0	 0.0	 0.0	 0.0	 1	    1.09257	   -4.98966	 220.0	 4	    1.11000	    0.95000;
	142	 1	 0.0	 0.0	 0.0	 0.0	 1	    1.09257	   -4.98966	 220.0	 4	    1.11000	    0.95000;
	143	 1	 0.0	 0.0	 0.0	 0.0	 1	    1.09981	   -7.48371	 220.0	 4	    1.11000	    0.95000;
	144	 1	 0.0	 0.0	 0.0	 0.0	 1	    1.09410	   -9.04702	 220.0	 4	    1.11000	    0.95000;
	145	 1	 0.0	 0.0	 0.0	 0.0	 1	    1.09410	   -9.04702	 220.0	 4	    1.11000	    0.95000;
	146	 2	 10.954	 -0.465	 0.0	 0.0	 1	    1.10991	   -6.02220	 220.0	 4	    1.11000	    0.95000;
	147	 2	 10.812	 -0.465	 0.0	 0.0	 1	    1.10990	   -6.02672	 220.0	 4	    1.11000	    0.95000;
	148	 2	 11.5	 6.86	 0.0	 0.0	 1	    1.11000	   -2.64043	 220.0	 4	    1.11000	    0.95000;
	149	 1	 1.634	 3.038	 0.0	 0.0	 1	    1.11000	   -2.64941	 220.0	 4	    1.11000	    0.95000;
	150	 2	 8.087	 -0.38	 0.0	 0.0	 1	    1.03995	   -1.46830	 400.0	 4	    1.05000	    0.95000;
	151	 2	 16.174	 -0.76	 0.0	 0.0	 1	    1.03996	   -1.47311	 400.0	 4	    1.05000	    0.95000;
	152	 1	 0.0	 0.0	 0.0	 0.0	 1	    1.06386	  -11.17957	 220.0	 4	    1.11000	    0.95000;
	153	 1	 0.0	 0.0	 0.0	 0.0	 1	    1.08188	   -8.40460	 220.0	 4	    1.11000	    0.95000;
	154	 1	 0.0	 0.0	 0.0	 0.0	 1	    1.08197	   -8.39242	 220.0	 4	    1.11000	    0.95000;
	155	 2	 30.555	 -3.555	 0.0	 0.0	 1	    1.11000	   -0.33668	 220.0	 4	    1.11000	    0.95000;
	156	 2	 14.679	 -3.566	 0.0	 0.0	 1	    1.11000	   -0.59097	 220.0	 4	    1.11000	    0.95000;
	157	 1	 0.0	 0.0	 0.0	 0.0	 1	    1.11000	   -0.33668	 220.0	 4	    1.11000	    0.95000;
	158	 1	 0.0	 0.0	 0.0	 0.0	 1	    1.03559	   -0.41718	 400.0	 4	    1.05000	    0.95000;
	159	 2	 7.385	 -1.783	 0.0	 0.0	 1	    1.03564	   -0.40833	 400.0	 4	    1.05000	    0.95000;
	160	 1	 0.0	 0.0	 0.0	 0.0	 1	    1.09085	   -5.37946	 220.0	 4	    1.11000	    0.95000;
	161	 1	 0.0	 0.0	 0.0	 0.0	 1	    1.09085	   -5.37946	 220.0	 4	    1.11000	    0.95000;
	162	 1	 0.0	 0.0	 0.0	 0.0	 1	    1.02065	   -8.31941	 400.0	 4	    1.05000	    0.95000;
	163	 1	 0.0	 0.0	 0.0	 0.0	 1	    1.02733	   -7.11036	 400.0	 4	    1.05000	    0.95000;
	164	 1	 0.0	 0.0	 0.0	 0.0	 1	    1.02732	   -7.10536	 400.0	 4	    1.05000	    0.95000;
	165	 2	 4.293	 -8.964	 0.0	 0.0	 1	    1.11000	   -5.99418	 220.0	 4	    1.11000	    0.95000;
	166	 2	 23.077	 7.176	 0.0	 0.0	 1	    1.10999	   -6.00679	 220.0	 4	    1.11000	    0.95000;
	167	 1	 0.0	 0.0	 0.0	 0.0	 1	    1.11000	   -5.99418	 220.0	 4	    1.11000	    0.95000;
	168	 1	 0.0	 0.0	 0.0	 0.0	 1	    1.08291	  -13.58801	 220.0	 4	    1.11000	    0.95000;
	169	 1	 0.0	 0.0	 0.0	 0.0	 1	    1.09171	   -5.12681	 220.0	 4	    1.11000	    0.95000;
	170	 1	 0.0	 0.0	 0.0	 0.0	 1	    1.09151	  -10.66678	 220.0	 4	    1.11000	    0.95000;
	171	 1	 0.0	 0.0	 0.0	 0.0	 1	    1.09144	  -10.66839	 220.0	 4	    1.11000	    0.95000;
	172	 1	 0.0	 0.0	 0.0	 0.0	 1	    1.00406	   -9.18479	 400.0	 4	    1.05000	    0.95000;
	173	 1	 0.0	 0.0	 0.0	 0.0	 1	    1.00406	   -9.18479	 400.0	 4	    1.05000	    0.95000;
	174	 1	 0.0	 0.0	 0.0	 0.0	 1	    1.05550	   -8.58113	 220.0	 4	    1.11000	    0.95000;
	175	 1	 0.0	 0.0	 0.0	 0.0	 1	    1.05552	   -8.57725	 220.0	 4	    1.11000	    0.95000;
	176	 1	 0.0	 0.0	 0.0	 0.0	 1	    1.08916	  -11.17926	 220.0	 4	    1.11000	    0.95000;
	177	 1	 0.0	 0.0	 0.0	 0.0	 1	    1.08264	   -7.41313	 220.0	 4	    1.11000	    0.95000;
	178	 1	 0.0	 0.0	 0.0	 0.0	 1	    1.08267	   -7.41038	 220.0	 4	    1.11000	    0.95000;
	179	 1	 0.0	 0.0	 0.0	 0.0	 1	    1.08543	   -8.60803	 220.0	 4	    1.11000	    0.95000;
	180	 1	 0.0	 0.0	 0.0	 0.0	 1	    1.08543	   -8.60803	 220.0	 4	    1.11000	    0.95000;
	181	 1	 0.0	 0.0	 0.0	 0.0	 1	    1.05268	   -9.68313	 220.0	 4	    1.11000	    0.95000;
	182	 1	 0.0	 0.0	 0.0	 0.0	 1	    1.04819	  -13.13002	 220.0	 5	    1.11000	    0.95000;
	183	 1	 0.0	 0.0	 0.0	 0.0	 1	    1.11000	   -8.39960	 220.0	 5	    1.11000	    0.95000;
	184	 1	 0.0	 0.0	 0.0	 0.0	 1	    1.03588	   -5.86117	 400.0	 5	    1.05000	    0.95000;
	185	 1	 0.0	 0.0	 0.0	 0.0	 1	    1.03591	   -5.85741	 400.0	 5	    1.05000	    0.95000;
	186	 1	 0.0	 0.0	 0.0	 0.0	 1	    1.01667	   -9.82993	 400.0	 5	    1.05000	    0.95000;
	187	 1	 0.0	 0.0	 0.0	 0.0	 1	    1.01668	   -9.83095	 400.0	 5	    1.05000	    0.95000;
	188	 1	 0.0	 0.0	 0.0	 0.0	 1	    1.02075	  -13.48592	 220.0	 5	    1.11000	    0.95000;
	189	 1	 0.0	 0.0	 0.0	 0.0	 1	    1.02082	  -13.48257	 220.0	 5	    1.11000	    0.95000;
	190	 1	 0.0	 0.0	 0.0	 0.0	 1	    1.07317	  -13.86277	 220.0	 5	    1.11000	    0.95000;
	191	 1	 0.0	 0.0	 0.0	 0.0	 1	    1.07304	  -13.86394	 220.0	 5	    1.11000	    0.95000;
	192	 1	 0.0	 0.0	 0.0	 0.0	 1	    0.99503	  -11.28801	 400.0	 5	    1.05000	    0.95000;
	193	 1	 0.0	 0.0	 0.0	 0.0	 1	    1.05776	  -12.32135	 220.0	 5	    1.11000	    0.95000;
	194	 1	 0.0	 0.0	 0.0	 0.0	 1	    1.05785	  -12.31932	 220.0	 5	    1.11000	    0.95000;
	195	 1	 0.0	 0.0	 0.0	 0.0	 1	    1.00594	  -11.95776	 400.0	 5	    1.05000	    0.95000;
	196	 1	 0.0	 0.0	 0.0	 0.0	 1	    1.00590	  -11.96311	 400.0	 5	    1.05000	    0.95000;
	197	 1	 0.0	 0.0	 0.0	 0.0	 1	    1.06265	  -14.57692	 220.0	 5	    1.11000	    0.95000;
	198	 1	 0.0	 0.0	 0.0	 0.0	 1	    1.06270	  -14.56981	 220.0	 5	    1.11000	    0.95000;
	199	 1	 0.0	 0.0	 0.0	 0.0	 1	    1.03712	   -5.57189	 400.0	 5	    1.05000	    0.95000;
	200	 1	 0.0	 0.0	 0.0	 0.0	 1	    1.03715	   -5.55976	 400.0	 5	    1.05000	    0.95000;
	201	 1	 0.0	 0.0	 0.0	 0.0	 1	    1.05015	  -14.99927	 220.0	 5	    1.11000	    0.95000;
	202	 1	 0.0	 0.0	 0.0	 0.0	 1	    1.05011	  -14.99757	 220.0	 5	    1.11000	    0.95000;
	203	 1	 0.0	 0.0	 0.0	 0.0	 1	    1.05197	  -13.21645	 220.0	 5	    1.11000	    0.95000;
	204	 1	 0.0	 0.0	 0.0	 0.0	 1	    1.05188	  -13.23046	 220.0	 5	    1.11000	    0.95000;
	205	 2	 0.0	 0.0	 0.0	 0.0	 1	    1.02279	   -7.51697	 400.0	 5	    1.05000	    0.95000;
	206	 2	 0.0	 0.0	 0.0	 0.0	 1	    1.02275	   -7.51990	 400.0	 5	    1.05000	    0.95000;
	207	 1	 0.0	 0.0	 0.0	 0.0	 1	    1.07972	  -11.31528	 220.0	 5	    1.11000	    0.95000;
	208	 1	 0.0	 0.0	 0.0	 0.0	 1	    1.07974	  -11.30769	 220.0	 5	    1.11000	    0.95000;
	209	 1	 8.101	 1.5	 0.0	 0.0	 1	    1.08281	  -15.07218	 110.0	 1	    1.12000	    0.95000;
	210	 1	 8.101	 1.0	 0.0	 0.0	 1	    1.07937	  -20.06090	 110.0	 1	    1.12000	    0.95000;
	211	 1	 9.114	 2.0	 0.0	 0.0	 1	    1.08792	  -15.01018	 110.0	 1	    1.12000	    0.95000;
	212	 1	 8.911	 7.8	 0.0	 0.0	 1	    1.01831	  -19.46377	 110.0	 1	    1.12000	    0.95000;
	213	 1	 4.05	 1.0	 0.0	 0.0	 1	    1.07960	   -1.30290	 110.0	 1	    1.12000	    0.95000;
	214	 1	 9.619	 2.5	 0.0	 0.0	 1	    1.09376	   -3.02621	 110.0	 1	    1.12000	    0.95000;
	215	 2	 51.981	 24.3	 0.0	 0.0	 1	    1.10816	  -12.76878	 110.0	 1	    1.12000	    0.95000;
	216	 1	 22.276	 2.5	 0.0	 0.0	 1	    1.10963	  -12.95477	 110.0	 1	    1.12000	    0.95000;
	217	 1	 10.126	 2.0	 0.0	 0.0	 1	    1.10901	  -12.93375	 110.0	 1	    1.12000	    0.95000;
	218	 1	 11.138	 2.0	 0.0	 0.0	 1	    1.10836	  -12.89953	 110.0	 1	    1.12000	    0.95000;
	219	 2	 13.163	 2.5	 0.0	 0.0	 1	    1.07629	  -17.70428	 110.0	 1	    1.12000	    0.95000;
	220	 1	 9.114	 2.25	 0.0	 0.0	 1	    1.06929	  -16.30855	 110.0	 1	    1.12000	    0.95000;
	221	 2	 0.0	 0.0	 0.0	 0.0	 1	    1.09440	  -13.79238	 110.0	 1	    1.12000	    0.95000;
	222	 2	 11.138	 2.4	 0.0	 0.0	 1	    1.07471	   -9.63472	 110.0	 1	    1.12000	    0.95000;
	223	 2	 17.214	 3.1	 0.0	 0.0	 1	    1.08643	  -16.63327	 110.0	 1	    1.12000	    0.95000;
	224	 1	 1.519	 0.4	 0.0	 0.0	 1	    1.06004	   -3.36715	 110.0	 1	    1.12000	    0.95000;
	225	 1	 5.265	 0.8	 0.0	 0.0	 1	    1.09839	  -15.69895	 110.0	 1	    1.12000	    0.95000;
	226	 1	 5.569	 0.5	 0.0	 0.0	 1	    1.10115	  -15.54940	 110.0	 1	    1.12000	    0.95000;
	227	 1	 19.239	 2.0	 0.0	 0.0	 1	    1.09803	  -14.24570	 110.0	 1	    1.12000	    0.95000;
	228	 1	 11.138	 2.0	 0.0	 0.0	 1	    1.08576	  -16.92363	 110.0	 1	    1.12000	    0.95000;
	229	 2	 2.633	 1.03	 0.0	 0.0	 1	    1.10292	   -7.10849	 110.0	 1	    1.12000	    0.95000;
	230	 2	 2.633	 1.03	 0.0	 0.0	 1	    1.10308	   -7.09607	 110.0	 1	    1.12000	    0.95000;
	231	 1	 16.201	 6.0	 0.0	 0.0	 1	    1.07559	  -17.24331	 110.0	 1	    1.12000	    0.95000;
	232	 1	 10.126	 1.1	 0.0	 0.0	 1	    1.09543	   -2.85922	 110.0	 1	    1.12000	    0.95000;
	233	 1	 9.619	 1.5	 0.0	 0.0	 1	    1.07224	   -9.63060	 110.0	 1	    1.12000	    0.95000;
	234	 1	 22.277	 17.0	 0.0	 0.0	 1	    1.08106	   -1.57064	 110.0	 1	    1.12000	    0.95000;
	235	 1	 8.607	 0.6	 0.0	 0.0	 1	    1.08264	  -16.84893	 110.0	 1	    1.12000	    0.95000;
	236	 1	 13.568	 4.41	 0.0	 0.0	 1	    1.10495	   -6.94016	 110.0	 1	    1.12000	    0.95000;
	237	 1	 7.695	 0.8	 0.0	 0.0	 1	    1.08224	  -16.82352	 110.0	 1	    1.12000	    0.95000;
	238	 1	 10.126	 1.5	 0.0	 0.0	 1	    1.09048	  -14.21642	 110.0	 1	    1.12000	    0.95000;
	239	 2	 4.493	 1.175	 0.0	 0.0	 1	    1.06407	  -16.68337	 110.0	 1	    1.12000	    0.95000;
	240	 1	 13.872	 0.6	 0.0	 0.0	 1	    1.08489	  -18.46156	 110.0	 1	    1.12000	    0.95000;
	241	 1	 7.594	 2.19	 0.0	 0.0	 1	    1.10447	   -6.99114	 110.0	 1	    1.12000	    0.95000;
	242	 1	 10.632	 0.4	 0.0	 0.0	 1	    1.11706	   -5.68078	 110.0	 1	    1.12000	    0.95000;
	243	 1	 0.0	 0.0	 0.0	 0.0	 1	    1.11717	   -5.65226	 110.0	 1	    1.12000	    0.95000;
	244	 1	 3.038	 1.4	 0.0	 0.0	 1	    1.11768	   -7.48737	 110.0	 1	    1.12000	    0.95000;
	245	 1	 0.0	 0.0	 0.0	 0.0	 1	    1.08808	    0.12564	 110.0	 1	    1.12000	    0.95000;
	246	 2	 1.982	 5.0	 0.0	 0.0	 1	    1.08891	    2.97440	 22.0	 1	    1.12000	    0.95000;
	247	 1	 11.138	 1.5	 0.0	 0.0	 1	    1.09249	  -17.37175	 110.0	 1	    1.12000	    0.95000;
	248	 1	 3.038	 0.5	 0.0	 0.0	 1	    1.10832	  -17.26308	 110.0	 1	    1.12000	    0.95000;
	249	 1	 3.038	 0.5	 0.0	 0.0	 1	    1.10407	  -16.15327	 110.0	 1	    1.12000	    0.95000;
	250	 1	 4.05	 0.5	 0.0	 0.0	 1	    1.05330	  -22.44058	 110.0	 1	    1.12000	    0.95000;
	251	 1	 4.86	 0.3	 0.0	 0.0	 1	    1.09491	  -15.27592	 110.0	 1	    1.12000	    0.95000;
	252	 1	 19.239	 7.0	 0.0	 0.0	 1	    1.08907	   -9.61616	 110.0	 1	    1.12000	    0.95000;
	253	 1	 22.276	 4.0	 0.0	 0.0	 1	    1.07658	  -17.31176	 110.0	 1	    1.12000	    0.95000;
	254	 1	 16.201	 2.0	 0.0	 0.0	 1	    1.08714	  -19.67418	 110.0	 1	    1.12000	    0.95000;
	255	 1	 24.302	 1.5	 0.0	 0.0	 1	    1.09619	  -16.34975	 110.0	 1	    1.12000	    0.95000;
	256	 1	 5.569	 1.0	 0.0	 0.0	 1	    1.09742	  -16.33028	 110.0	 1	    1.12000	    0.95000;
	257	 1	 4.303	 0.6	 0.0	 0.0	 1	    1.07904	   -1.63224	 110.0	 1	    1.12000	    0.95000;
	258	 1	 4.303	 0.6	 0.0	 0.0	 1	    1.07897	   -1.64877	 110.0	 1	    1.12000	    0.95000;
	259	 1	 11.24	 3.24	 0.0	 0.0	 1	    1.09178	   -8.08028	 110.0	 1	    1.12000	    0.95000;
	260	 1	 7.088	 1.0	 0.0	 0.0	 1	    1.04999	  -23.03936	 110.0	 1	    1.12000	    0.95000;
	261	 1	 2.633	 1.2	 0.0	 0.0	 1	    1.09793	  -15.08086	 110.0	 1	    1.12000	    0.95000;
	262	 1	 11.341	 1.8	 0.0	 0.0	 1	    1.08237	  -14.74018	 110.0	 1	    1.12000	    0.95000;
	263	 1	 2.329	 1.1	 0.0	 0.0	 1	    1.08139	  -17.51743	 110.0	 1	    1.12000	    0.95000;
	264	 1	 40.503	 34.0	 0.0	 0.0	 1	    1.08718	   -0.28695	 110.0	 1	    1.12000	    0.95000;
	265	 1	 38.479	 33.0	 0.0	 0.0	 1	    1.09137	   -2.42437	 110.0	 1	    1.12000	    0.95000;
	266	 1	 6.075	 1.0	 0.0	 0.0	 1	    1.07867	  -16.86354	 110.0	 1	    1.12000	    0.95000;
	267	 1	 13.67	 0.7	 0.0	 0.0	 1	    1.08447	  -17.11034	 110.0	 1	    1.12000	    0.95000;
	268	 1	 9.923	 1.8	 0.0	 0.0	 1	    1.09719	  -14.69631	 110.0	 1	    1.12000	    0.95000;
	269	 1	 13.163	 1.5	 0.0	 0.0	 1	    1.09643	  -14.39718	 110.0	 1	    1.12000	    0.95000;
	270	 1	 10.125	 1.5	 0.0	 0.0	 1	    1.05625	  -21.84933	 110.0	 1	    1.12000	    0.95000;
	271	 1	 18.227	 4.5	 0.0	 0.0	 1	    1.07074	  -16.11856	 110.0	 1	    1.12000	    0.95000;
	272	 1	 0.304	 0.1	 0.0	 0.0	 1	    1.07559	  -17.42434	 110.0	 1	    1.12000	    0.95000;
	273	 1	 0.506	 0.15	 0.0	 0.0	 1	    1.10360	  -14.65063	 110.0	 1	    1.12000	    0.95000;
	274	 1	 0.202	 0.06	 0.0	 0.0	 1	    1.09408	  -14.96849	 110.0	 1	    1.12000	    0.95000;
	275	 1	 12.88	 5.8	 0.0	 0.0	 1	    1.10638	   -6.44265	 110.0	 1	    1.12000	    0.95000;
	276	 1	 8.587	 3.87	 0.0	 0.0	 1	    1.10820	   -6.57361	 110.0	 1	    1.12000	    0.95000;
	277	 1	 9.619	 1.2	 0.0	 0.0	 1	    1.08077	   -9.18561	 110.0	 1	    1.12000	    0.95000;
	278	 1	 3.038	 0.5	 0.0	 0.0	 1	    1.10599	  -12.76588	 110.0	 1	    1.12000	    0.95000;
	279	 1	 8.101	 0.0	 0.0	 0.0	 1	    1.10234	  -12.11804	 110.0	 1	    1.12000	    0.95000;
	280	 1	 15.188	 2.0	 0.0	 0.0	 1	    1.10123	  -14.66915	 110.0	 1	    1.12000	    0.95000;
	281	 1	 9.62	 2.0	 0.0	 0.0	 1	    1.07556	  -15.97315	 110.0	 1	    1.12000	    0.95000;
	282	 1	 17.213	 13.999	 0.0	 0.0	 1	    1.08318	   -2.26143	 110.0	 1	    1.12000	    0.95000;
	283	 1	 16.202	 13.0	 0.0	 0.0	 1	    1.08300	   -2.24928	 110.0	 1	    1.12000	    0.95000;
	284	 1	 13.771	 4.47	 0.0	 0.0	 1	    1.10579	   -6.36982	 110.0	 1	    1.12000	    0.95000;
	285	 1	 15.189	 4.0	 0.0	 0.0	 1	    1.09762	   -7.49112	 110.0	 1	    1.12000	    0.95000;
	286	 1	 10.126	 1.0	 0.0	 0.0	 1	    1.09933	  -14.73746	 110.0	 1	    1.12000	    0.95000;
	287	 1	 5.063	 0.0	 0.0	 0.0	 1	    1.10318	  -14.35146	 110.0	 1	    1.12000	    0.95000;
	288	 1	 3.037	 2.5	 0.0	 0.0	 1	    1.06545	  -16.58387	 110.0	 1	    1.12000	    0.95000;
	289	 1	 4.05	 0.501	 0.0	 0.0	 1	    1.09398	   -8.14836	 110.0	 1	    1.12000	    0.95000;
	290	 1	 21.77	 6.7	 0.0	 0.0	 1	    1.07687	  -15.84245	 110.0	 1	    1.12000	    0.95000;
	291	 2	 15.999	 1.6	 0.0	 0.0	 1	    1.09908	  -15.12531	 110.0	 1	    1.12000	    0.95000;
	292	 1	 8.202	 2.37	 0.0	 0.0	 1	    1.10764	   -6.14763	 110.0	 1	    1.12000	    0.95000;
	293	 1	 5.366	 1.0	 0.0	 0.0	 1	    1.08689	  -13.94372	 110.0	 1	    1.12000	    0.95000;
	294	 2	 7.493	 0.3	 0.0	 0.0	 1	    1.08154	  -17.71081	 110.0	 1	    1.12000	    0.95000;
	295	 1	 13.163	 0.4	 0.0	 0.0	 1	    1.09319	   -8.24151	 110.0	 1	    1.12000	    0.95000;
	296	 1	 6.582	 1.5	 0.0	 0.0	 1	    1.09644	   -7.49883	 110.0	 1	    1.12000	    0.95000;
	297	 1	 10.328	 3.36	 0.0	 0.0	 1	    1.09848	   -7.41078	 110.0	 1	    1.12000	    0.95000;
	298	 1	 14.885	 4.7	 0.0	 0.0	 1	    1.10156	   -7.19725	 110.0	 1	    1.12000	    0.95000;
	299	 2	 15.188	 4.0	 0.0	 0.0	 1	    1.10563	  -13.27444	 110.0	 1	    1.12000	    0.95000;
	300	 1	 0.0	 0.0	 0.0	 0.0	 1	    1.10847	   -6.57777	 110.0	 1	    1.12000	    0.95000;
	301	 1	 5.569	 1.2	 0.0	 0.0	 1	    1.05156	   -4.30046	 110.0	 1	    1.12000	    0.95000;
	302	 1	 10.835	 3.52	 0.0	 0.0	 1	    1.10774	   -6.13672	 110.0	 1	    1.12000	    0.95000;
	303	 1	 13.062	 3.77	 0.0	 0.0	 1	    1.10434	   -6.99076	 110.0	 1	    1.12000	    0.95000;
	304	 1	 25.719	 7.42	 0.0	 0.0	 1	    1.10586	   -6.47454	 110.0	 1	    1.12000	    0.95000;
	305	 1	 25.72	 7.42	 0.0	 0.0	 1	    1.09901	   -7.41010	 110.0	 1	    1.12000	    0.95000;
	306	 2	 97.275	 54.72	 0.0	 0.0	 1	    1.09358	   -7.62582	 110.0	 1	    1.12000	    0.95000;
	307	 2	 62.22	 22.54	 0.0	 0.0	 1	    1.10105	   -7.27201	 110.0	 1	    1.12000	    0.95000;
	308	 2	 35.918	 13.2	 0.0	 0.0	 1	    1.10691	   -6.90997	 110.0	 1	    1.12000	    0.95000;
	309	 1	 0.0	 0.0	 0.0	 0.0	 1	    1.09868	   -7.41072	 110.0	 1	    1.12000	    0.95000;
	310	 2	 39.452	 17.47	 0.0	 0.0	 1	    1.10793	   -6.37826	 110.0	 1	    1.12000	    0.95000;
	311	 2	 30.853	 15.45	 0.0	 0.0	 1	    1.10772	   -6.88375	 110.0	 1	    1.12000	    0.95000;
	312	 1	 15.492	 0.8	 0.0	 0.0	 1	    1.09675	   -7.61434	 110.0	 1	    1.12000	    0.95000;
	313	 1	 2.531	 0.5	 0.0	 0.0	 1	    1.10064	  -14.08045	 110.0	 1	    1.12000	    0.95000;
	314	 1	 3.038	 1.0	 0.0	 0.0	 1	    1.06367	  -16.78394	 110.0	 1	    1.12000	    0.95000;
	315	 1	 8.606	 2.1	 0.0	 0.0	 1	    1.06198	  -16.92309	 110.0	 1	    1.12000	    0.95000;
	316	 1	 11.644	 2.6	 0.0	 0.0	 1	    1.06199	  -16.92252	 110.0	 1	    1.12000	    0.95000;
	317	 1	 13.67	 3.6	 0.0	 0.0	 1	    1.07548	  -15.66363	 110.0	 1	    1.12000	    0.95000;
	318	 1	 13.366	 3.85	 0.0	 0.0	 1	    1.10597	   -6.41542	 110.0	 1	    1.12000	    0.95000;
	319	 2	 19.138	 5.52	 0.0	 0.0	 1	    1.10506	   -6.61509	 110.0	 1	    1.12000	    0.95000;
	320	 1	 17.214	 3.0	 0.0	 0.0	 1	    1.10157	  -12.21327	 110.0	 1	    1.12000	    0.95000;