%%%%%%%%%%%%%%%%%%%%%%%%%%%%%%%%%%%%%%%%%%%%%%%%%%%%%%%%%%%%%%%%%%%%%%%%%%%
%%%%                                                                  %%%%%
%%%%    IEEE PES Power Grid Library - Optimal Power Flow - v21.07     %%%%%
%%%%          (https://github.com/power-grid-lib/pglib-opf)           %%%%%
%%%%             Benchmark Group - Small Angle Difference             %%%%%
%%%%                         29 - July - 2021                         %%%%%
%%%%                                                                  %%%%%
%%%%%%%%%%%%%%%%%%%%%%%%%%%%%%%%%%%%%%%%%%%%%%%%%%%%%%%%%%%%%%%%%%%%%%%%%%%
function mpc = pglib_opf_case2312_goc__sad
mpc.version = '2';
mpc.baseMVA = 100.0;

%% bus data
%	bus_i	type	Pd	Qd	Gs	Bs	area	Vm	Va	baseKV	zone	Vmax	Vmin
mpc.bus = [
	1	 1	 0.0	 0.0	 0.0	 0.0	 1	    1.00000	    0.00000	 345.0	 1	    1.10000	    0.90000;
	2	 1	 7.19	 -4.074	 0.0	 -7.133	 1	    1.00000	    0.00000	 345.0	 1	    1.10000	    0.90000;
	3	 1	 1.523	 1.047	 0.0	 0.0	 1	    1.00000	    0.00000	 345.0	 1	    1.10000	    0.90000;
	4	 1	 14.723	 -5.338	 0.0	 -9.601	 1	    1.00000	    0.00000	 345.0	 1	    1.10000	    0.90000;
	5	 1	 0.0	 0.0	 0.0	 0.0	 1	    1.00000	    0.00000	 345.0	 1	    1.10000	    0.90000;
	6	 1	 43.573	 22.627	 0.0	 41.987	 1	    1.00000	    0.00000	 345.0	 1	    1.10000	    0.90000;
	7	 1	 0.0	 0.0	 0.0	 0.0	 1	    1.00000	    0.00000	 345.0	 1	    1.10000	    0.90000;
	8	 1	 0.0	 0.0	 0.0	 0.0	 1	    1.00000	    0.00000	 345.0	 1	    1.10000	    0.90000;
	9	 1	 121.248	 -56.789	 0.0	 0.0	 1	    1.00000	    0.00000	 345.0	 1	    1.10000	    0.90000;
	10	 1	 22.751	 40.005	 0.0	 0.0	 1	    1.00000	    0.00000	 345.0	 1	    1.10000	    0.90000;
	11	 1	 6.855	 4.115	 0.0	 0.0	 1	    1.00000	    0.00000	 138.0	 1	    1.10000	    0.90000;
	12	 1	 11.5	 5.858	 0.0	 0.0	 1	    1.00000	    0.00000	 138.0	 1	    1.10000	    0.90000;
	13	 1	 3.468	 1.364	 0.0	 0.0	 1	    1.00000	    0.00000	 138.0	 1	    1.10000	    0.90000;
	14	 1	 11.202	 4.297	 0.0	 0.0	 1	    1.00000	    0.00000	 138.0	 1	    1.10000	    0.90000;
	15	 1	 0.236	 0.055	 0.0	 0.0	 1	    1.00000	    0.00000	 138.0	 1	    1.10000	    0.90000;
	16	 1	 0.0	 0.0	 0.0	 0.0	 1	    1.00000	    0.00000	 138.0	 1	    1.10000	    0.90000;
	17	 1	 5.852	 2.532	 0.0	 0.0	 1	    1.00000	    0.00000	 138.0	 1	    1.10000	    0.90000;
	18	 1	 1.348	 0.438	 0.0	 0.0	 1	    1.00000	    0.00000	 138.0	 1	    1.10000	    0.90000;
	19	 1	 0.822	 0.274	 0.0	 0.0	 1	    1.00000	    0.00000	 138.0	 1	    1.10000	    0.90000;
	20	 1	 11.256	 -19.5	 0.0	 0.0	 1	    1.00000	    0.00000	 138.0	 1	    1.10000	    0.90000;
	21	 1	 7.984	 1.699	 0.0	 0.0	 1	    1.00000	    0.00000	 138.0	 1	    1.10000	    0.90000;
	22	 1	 0.0	 0.0	 0.0	 0.0	 1	    1.00000	    0.00000	 138.0	 1	    1.10000	    0.90000;
	23	 1	 23.291	 -7.051	 0.0	 0.0	 1	    1.00000	    0.00000	 138.0	 1	    1.10000	    0.90000;
	24	 2	 4.679	 2.751	 0.0	 0.0	 1	    1.00000	    0.00000	 138.0	 1	    1.10000	    0.90000;
	25	 1	 0.0	 -0.219	 0.0	 0.0	 1	    1.00000	    0.00000	 138.0	 1	    1.10000	    0.90000;
	26	 1	 19.403	 6.91	 0.0	 0.0	 1	    1.00000	    0.00000	 138.0	 1	    1.10000	    0.90000;
	27	 1	 2.46	 0.822	 0.0	 0.0	 1	    1.00000	    0.00000	 138.0	 1	    1.10000	    0.90000;
	28	 1	 0.0	 0.0	 0.0	 0.0	 1	    1.00000	    0.00000	 138.0	 1	    1.10000	    0.90000;
	29	 1	 5.211	 2.033	 0.0	 0.0	 1	    1.00000	    0.00000	 138.0	 1	    1.10000	    0.90000;
	30	 1	 0.0	 0.0	 0.0	 0.0	 1	    1.00000	    0.00000	 138.0	 1	    1.10000	    0.90000;
	31	 1	 2.69	 0.937	 0.0	 0.0	 1	    1.00000	    0.00000	 138.0	 1	    1.10000	    0.90000;
	32	 1	 3.863	 1.923	 0.0	 -1.306	 1	    1.00000	    0.00000	 138.0	 1	    1.10000	    0.90000;
	33	 1	 3.863	 2.532	 0.0	 0.0	 1	    1.00000	    0.00000	 138.0	 1	    1.10000	    0.90000;
	34	 1	 0.0	 0.0	 0.0	 0.0	 1	    1.00000	    0.00000	 138.0	 1	    1.10000	    0.90000;
	35	 1	 0.877	 0.274	 0.0	 0.0	 1	    1.00000	    0.00000	 138.0	 1	    1.10000	    0.90000;
	36	 1	 0.0	 0.0	 0.0	 0.0	 1	    1.00000	    0.00000	 138.0	 1	    1.10000	    0.90000;
	37	 1	 0.0	 0.0	 0.0	 0.0	 1	    1.00000	    0.00000	 138.0	 1	    1.10000	    0.90000;
	38	 1	 0.0	 0.0	 0.0	 0.0	 1	    1.00000	    0.00000	 138.0	 1	    1.10000	    0.90000;
	39	 1	 9.298	 -0.002	 0.0	 -0.488	 1	    1.00000	    0.00000	 138.0	 1	    1.10000	    0.90000;
	40	 1	 0.0	 0.0	 0.0	 0.0	 1	    1.00000	    0.00000	 138.0	 1	    1.10000	    0.90000;
	41	 1	 0.937	 0.329	 0.0	 0.0	 1	    1.00000	    0.00000	 138.0	 1	    1.10000	    0.90000;
	42	 1	 3.337	 0.493	 0.0	 0.0	 1	    1.00000	    0.00000	 138.0	 1	    1.10000	    0.90000;
	43	 1	 7.851	 2.115	 0.0	 3.712	 1	    1.00000	    0.00000	 138.0	 1	    1.10000	    0.90000;
	44	 1	 8.683	 4.552	 0.0	 0.0	 1	    1.00000	    0.00000	 138.0	 1	    1.10000	    0.90000;
	45	 1	 2.712	 1.249	 0.0	 0.0	 1	    1.00000	    0.00000	 138.0	 1	    1.10000	    0.90000;
	46	 2	 20.377	 8.551	 0.0	 0.0	 1	    1.00000	    0.00000	 138.0	 1	    1.10000	    0.90000;
	47	 1	 6.416	 2.296	 0.0	 0.0	 1	    1.00000	    0.00000	 138.0	 1	    1.10000	    0.90000;
	48	 1	 0.0	 0.082	 0.0	 0.0	 1	    1.00000	    0.00000	 138.0	 1	    1.10000	    0.90000;
	49	 1	 22.697	 0.068	 0.0	 -4.149	 1	    1.00000	    0.00000	 138.0	 1	    1.10000	    0.90000;
	50	 1	 0.0	 0.0	 0.0	 0.0	 1	    1.00000	    0.00000	 138.0	 1	    1.10000	    0.90000;
	51	 1	 0.0	 0.0	 0.0	 0.0	 1	    1.00000	    0.00000	 138.0	 1	    1.10000	    0.90000;
	52	 1	 10.186	 3.244	 0.0	 0.0	 1	    1.00000	    0.00000	 138.0	 1	    1.10000	    0.90000;
	53	 1	 4.34	 1.764	 0.0	 -61.98	 1	    1.00000	    0.00000	 138.0	 1	    1.10000	    0.90000;
	54	 1	 2.11	 1.156	 0.0	 0.0	 1	    1.00000	    0.00000	 138.0	 1	    1.10000	    0.90000;
	55	 1	 0.175	 0.0	 0.0	 0.0	 1	    1.00000	    0.00000	 138.0	 1	    1.10000	    0.90000;
	56	 1	 3.874	 1.436	 0.0	 0.0	 1	    1.00000	    0.00000	 138.0	 1	    1.10000	    0.90000;
	57	 1	 2.285	 0.816	 0.0	 0.0	 1	    1.00000	    0.00000	 138.0	 1	    1.10000	    0.90000;
	58	 1	 27.316	 -3.219	 0.0	 0.0	 1	    1.00000	    0.00000	 138.0	 1	    1.10000	    0.90000;
	59	 1	 3.633	 1.222	 0.0	 0.0	 1	    1.00000	    0.00000	 138.0	 1	    1.10000	    0.90000;
	60	 1	 0.822	 0.219	 0.0	 0.0	 1	    1.00000	    0.00000	 138.0	 1	    1.10000	    0.90000;
	61	 1	 4.92	 13.296	 0.0	 0.0	 1	    1.00000	    0.00000	 138.0	 1	    1.10000	    0.90000;
	62	 1	 0.0	 0.0	 0.0	 0.0	 1	    1.00000	    0.00000	 138.0	 1	    1.10000	    0.90000;
	63	 1	 2.575	 0.849	 0.0	 0.0	 1	    1.00000	    0.00000	 138.0	 1	    1.10000	    0.90000;
	64	 1	 1.288	 0.438	 0.0	 0.0	 1	    1.00000	    0.00000	 138.0	 1	    1.10000	    0.90000;
	65	 1	 1.173	 0.384	 0.0	 0.0	 1	    1.00000	    0.00000	 138.0	 1	    1.10000	    0.90000;
	66	 1	 4.049	 1.496	 0.0	 0.0	 1	    1.00000	    0.00000	 138.0	 1	    1.10000	    0.90000;
	67	 1	 5.288	 2.044	 0.0	 3.708	 1	    1.00000	    0.00000	 138.0	 1	    1.10000	    0.90000;
	68	 2	 9.425	 18.526	 0.0	 0.0	 1	    1.00000	    0.00000	 138.0	 1	    1.10000	    0.90000;
	69	 1	 0.0	 0.0	 0.0	 0.0	 1	    1.00000	    0.00000	 138.0	 1	    1.10000	    0.90000;
	70	 1	 13.699	 3.836	 0.0	 0.0	 1	    1.00000	    0.00000	 138.0	 1	    1.10000	    0.90000;
	71	 1	 0.0	 0.0	 0.0	 0.0	 1	    1.00000	    0.00000	 345.0	 2	    1.10000	    0.90000;
	72	 1	 0.0	 0.0	 0.0	 0.0	 1	    1.00000	    0.00000	 345.0	 2	    1.10000	    0.90000;
	73	 1	 0.0	 0.0	 0.0	 0.0	 1	    1.00000	    0.00000	 345.0	 2	    1.10000	    0.90000;
	74	 1	 0.0	 0.0	 0.0	 0.0	 1	    1.00000	    0.00000	 345.0	 2	    1.10000	    0.90000;
	75	 1	 6.575	 16.438	 0.0	 0.0	 1	    1.00000	    0.00000	 345.0	 2	    1.10000	    0.90000;
	76	 2	 10.91	 20.038	 0.0	 0.0	 1	    1.00000	    0.00000	 345.0	 2	    1.10000	    0.90000;
	77	 2	 6.575	 16.438	 0.0	 0.0	 1	    1.00000	    0.00000	 500.0	 2	    1.10000	    0.90000;
	78	 2	 0.0	 0.0	 0.0	 6.23030263671	 1	    1.00000	    0.00000	 345.0	 2	    1.10000	    0.90000;
	79	 1	 0.0	 0.0	 0.0	 0.0	 1	    1.00000	    0.00000	 345.0	 2	    1.10000	    0.90000;
	80	 1	 0.0	 0.0	 0.0	 0.0	 1	    1.00000	    0.00000	 345.0	 2	    1.10000	    0.90000;
	81	 1	 0.0	 0.0	 0.0	 0.0	 1	    1.00000	    0.00000	 345.0	 2	    1.10000	    0.90000;
	82	 1	 0.0	 0.0	 0.0	 0.0	 1	    1.00000	    0.00000	 345.0	 2	    1.10000	    0.90000;
	83	 1	 6.274	 1.447	 0.0	 0.0	 1	    1.00000	    0.00000	 138.0	 2	    1.10000	    0.90000;
	84	 1	 14.197	 3.518	 0.0	 0.0	 1	    1.00000	    0.00000	 138.0	 2	    1.10000	    0.90000;
	85	 1	 0.0	 0.0	 0.0	 0.0	 1	    1.00000	    0.00000	 138.0	 2	    1.10000	    0.90000;
	86	 1	 8.605	 4.785	 0.0	 6.325	 1	    1.00000	    0.00000	 138.0	 2	    1.10000	    0.90000;
	87	 1	 1.655	 0.696	 0.0	 0.0	 1	    1.00000	    0.00000	 138.0	 2	    1.10000	    0.90000;
	88	 1	 3.633	 0.351	 0.0	 0.0	 1	    1.00000	    0.00000	 138.0	 2	    1.10000	    0.90000;
	89	 1	 6.844	 2.658	 0.0	 0.0	 1	    1.00000	    0.00000	 138.0	 2	    1.10000	    0.90000;
	90	 1	 1.989	 0.29	 0.0	 -0.019	 1	    1.00000	    0.00000	 138.0	 2	    1.10000	    0.90000;
	91	 1	 1.94	 0.636	 0.0	 0.0	 1	    1.00000	    0.00000	 138.0	 2	    1.10000	    0.90000;
	92	 1	 10.532	 18.027	 0.0	 0.0	 1	    1.00000	    0.00000	 138.0	 2	    1.10000	    0.90000;
	93	 1	 0.0	 0.0	 0.0	 0.0	 1	    1.00000	    0.00000	 138.0	 2	    1.10000	    0.90000;
	94	 1	 1.255	 0.46	 0.0	 0.0	 1	    1.00000	    0.00000	 138.0	 2	    1.10000	    0.90000;
	95	 1	 2.57	 1.047	 0.0	 7.99995490307	 1	    1.00000	    0.00000	 138.0	 2	    1.10000	    0.90000;
	96	 1	 0.055	 -0.433	 0.0	 0.0	 1	    1.00000	    0.00000	 138.0	 2	    1.10000	    0.90000;
	97	 1	 3.055	 1.078	 0.0	 0.0	 1	    1.00000	    0.00000	 138.0	 2	    1.10000	    0.90000;
	98	 2	 11.087	 13.984	 0.0	 0.0	 1	    1.00000	    0.00000	 138.0	 2	    1.10000	    0.90000;
	99	 2	 6.885	 5.08	 0.0	 0.0	 1	    1.00000	    0.00000	 138.0	 2	    1.10000	    0.90000;
	100	 1	 7.074	 2.597	 0.0	 0.0	 1	    1.00000	    0.00000	 138.0	 2	    1.10000	    0.90000;
	101	 1	 5.134	 2.077	 0.0	 0.0	 1	    1.00000	    0.00000	 138.0	 2	    1.10000	    0.90000;
	102	 1	 7.759	 3.118	 0.0	 0.0	 1	    1.00000	    0.00000	 138.0	 2	    1.10000	    0.90000;
	103	 1	 6.247	 2.049	 0.0	 0.0	 1	    1.00000	    0.00000	 138.0	 2	    1.10000	    0.90000;
	104	 1	 5.704	 2.082	 0.0	 -1.48527940582e-05	 1	    1.00000	    0.00000	 138.0	 2	    1.10000	    0.90000;
	105	 1	 0.0	 0.0	 0.0	 0.0	 1	    1.00000	    0.00000	 138.0	 2	    1.10000	    0.90000;
	106	 1	 0.0	 0.0	 0.0	 0.0	 1	    1.00000	    0.00000	 138.0	 2	    1.10000	    0.90000;
	107	 1	 3.008	 0.351	 0.0	 0.0	 1	    1.00000	    0.00000	 138.0	 2	    1.10000	    0.90000;
	108	 1	 3.764	 1.096	 0.0	 0.0	 1	    1.00000	    0.00000	 138.0	 2	    1.10000	    0.90000;
	109	 1	 3.079	 1.271	 0.0	 0.0	 1	    1.00000	    0.00000	 138.0	 2	    1.10000	    0.90000;
	110	 1	 2.279	 0.926	 0.0	 0.0	 1	    1.00000	    0.00000	 138.0	 2	    1.10000	    0.90000;
	111	 1	 0.8	 0.29	 0.0	 0.0	 1	    1.00000	    0.00000	 138.0	 2	    1.10000	    0.90000;
	112	 1	 0.981	 0.416	 0.0	 0.0	 1	    1.00000	    0.00000	 138.0	 2	    1.10000	    0.90000;
	113	 1	 0.915	 0.405	 0.0	 0.0	 1	    1.00000	    0.00000	 138.0	 2	    1.10000	    0.90000;
	114	 1	 1.704	 0.471	 0.0	 0.0	 1	    1.00000	    0.00000	 138.0	 2	    1.10000	    0.90000;
	115	 1	 2.614	 0.296	 0.0	 0.0	 1	    1.00000	    0.00000	 138.0	 2	    1.10000	    0.90000;
	116	 1	 3.879	 0.981	 0.0	 0.0	 1	    1.00000	    0.00000	 138.0	 2	    1.10000	    0.90000;
	117	 1	 6.274	 2.542	 0.0	 3.51187827085	 1	    1.00000	    0.00000	 138.0	 2	    1.10000	    0.90000;
	118	 1	 4.619	 1.847	 0.0	 0.0	 1	    1.00000	    0.00000	 138.0	 2	    1.10000	    0.90000;
	119	 1	 3.71	 -0.932	 0.0	 0.0	 1	    1.00000	    0.00000	 138.0	 2	    1.10000	    0.90000;
	120	 2	 11.984	 6.937	 0.0	 0.0	 1	    1.00000	    0.00000	 138.0	 2	    1.10000	    0.90000;
	121	 1	 13.688	 12.707	 0.0	 0.0	 1	    1.00000	    0.00000	 138.0	 2	    1.10000	    0.90000;
	122	 1	 7.984	 2.312	 0.0	 0.0	 1	    1.00000	    0.00000	 138.0	 2	    1.10000	    0.90000;
	123	 1	 8.838	 2.597	 0.0	 0.0	 1	    1.00000	    0.00000	 138.0	 2	    1.10000	    0.90000;
	124	 1	 2.926	 0.97	 0.0	 0.0	 1	    1.00000	    0.00000	 138.0	 2	    1.10000	    0.90000;
	125	 1	 3.107	 3.2	 0.0	 0.0	 1	    1.00000	    0.00000	 138.0	 2	    1.10000	    0.90000;
	126	 1	 4.219	 1.732	 0.0	 0.0	 1	    1.00000	    0.00000	 138.0	 2	    1.10000	    0.90000;
	127	 1	 0.0	 0.0	 0.0	 0.0	 1	    1.00000	    0.00000	 138.0	 2	    1.10000	    0.90000;
	128	 1	 4.055	 1.392	 0.0	 0.0	 1	    1.00000	    0.00000	 138.0	 2	    1.10000	    0.90000;
	129	 1	 0.658	 0.258	 0.0	 0.0	 1	    1.00000	    0.00000	 138.0	 2	    1.10000	    0.90000;
	130	 1	 3.134	 1.271	 0.0	 0.0	 1	    1.00000	    0.00000	 138.0	 2	    1.10000	    0.90000;
	131	 1	 3.195	 1.271	 0.0	 0.0	 1	    1.00000	    0.00000	 138.0	 2	    1.10000	    0.90000;
	132	 1	 3.425	 0.953	 0.0	 0.0	 1	    1.00000	    0.00000	 138.0	 2	    1.10000	    0.90000;
	133	 1	 3.425	 0.953	 0.0	 0.0	 1	    1.00000	    0.00000	 138.0	 2	    1.10000	    0.90000;
	134	 1	 0.345	 0.115	 0.0	 0.0	 1	    1.00000	    0.00000	 138.0	 2	    1.10000	    0.90000;
	135	 2	 7.195	 2.893	 0.0	 0.0	 1	    1.00000	    0.00000	 138.0	 2	    1.10000	    0.90000;
	136	 1	 5.134	 1.978	 0.0	 0.0	 1	    1.00000	    0.00000	 138.0	 2	    1.10000	    0.90000;
	137	 1	 2.564	 1.041	 0.0	 0.0	 1	    1.00000	    0.00000	 138.0	 2	    1.10000	    0.90000;
	138	 1	 3.54	 1.392	 0.0	 4.1998700159	 1	    1.00000	    0.00000	 138.0	 2	    1.10000	    0.90000;
	139	 1	 11.923	 3.342	 0.0	 0.0	 1	    1.00000	    0.00000	 138.0	 2	    1.10000	    0.90000;
	140	 1	 1.14	 0.46	 0.0	 0.0	 1	    1.00000	    0.00000	 138.0	 2	    1.10000	    0.90000;
	141	 1	 1.485	 0.575	 0.0	 0.0	 1	    1.00000	    0.00000	 138.0	 2	    1.10000	    0.90000;
	142	 1	 2.225	 0.29	 0.0	 0.0	 1	    1.00000	    0.00000	 138.0	 2	    1.10000	    0.90000;
	143	 1	 0.0	 0.0	 0.0	 0.0	 1	    1.00000	    0.00000	 138.0	 2	    1.10000	    0.90000;
	144	 1	 0.0	 0.0	 0.0	 0.0	 1	    1.00000	    0.00000	 138.0	 2	    1.10000	    0.90000;
	145	 1	 0.0	 0.0	 0.0	 0.0	 1	    1.00000	    0.00000	 138.0	 2	    1.10000	    0.90000;
	146	 1	 4.619	 1.677	 0.0	 0.0	 1	    1.00000	    0.00000	 138.0	 2	    1.10000	    0.90000;
	147	 1	 2.055	 0.46	 0.0	 0.0	 1	    1.00000	    0.00000	 138.0	 2	    1.10000	    0.90000;
	148	 1	 15.458	 5.66	 0.0	 0.0	 1	    1.00000	    0.00000	 138.0	 2	    1.10000	    0.90000;
	149	 1	 0.855	 0.345	 0.0	 0.0	 1	    1.00000	    0.00000	 138.0	 2	    1.10000	    0.90000;
	150	 2	 347.397	 0.0	 0.0	 0.0	 1	    1.00000	    0.00000	 345.0	 2	    1.10000	    0.90000;
	151	 1	 44.658	 47.066	 0.0	 0.0	 1	    1.00000	    0.00000	 345.0	 3	    1.10000	    0.90000;
	152	 1	 0.0	 0.0	 0.0	 0.0	 1	    1.00000	    0.00000	 500.0	 3	    1.10000	    0.90000;
	153	 1	 0.0	 0.0	 0.0	 -11.354	 1	    1.00000	    0.00000	 500.0	 3	    1.10000	    0.90000;
	154	 1	 0.0	 0.0	 0.0	 0.0	 1	    1.00000	    0.00000	 500.0	 3	    1.10000	    0.90000;
	155	 1	 0.0	 0.0	 0.0	 0.0	 1	    1.00000	    0.00000	 500.0	 3	    1.10000	    0.90000;
	156	 1	 84.714	 39.301	 0.0	 75.294	 1	    1.00000	    0.00000	 500.0	 3	    1.10000	    0.90000;
	157	 1	 0.0	 0.0	 0.0	 -27.072	 1	    1.00000	    0.00000	 345.0	 3	    1.10000	    0.90000;
	158	 1	 0.0	 0.0	 0.0	 -322.112	 1	    1.00000	    0.00000	 500.0	 3	    1.10000	    0.90000;
	159	 1	 0.0	 0.0	 0.0	 0.0	 1	    1.00000	    0.00000	 500.0	 3	    1.10000	    0.90000;
	160	 1	 0.0	 0.0	 0.0	 0.0	 1	    1.00000	    0.00000	 500.0	 3	    1.10000	    0.90000;
	161	 1	 0.0	 0.0	 0.0	 -124.239	 1	    1.00000	    0.00000	 500.0	 3	    1.10000	    0.90000;
	162	 1	 19.021	 32.965	 0.0	 0.0	 1	    1.00000	    0.00000	 500.0	 3	    1.10000	    0.90000;
	163	 1	 0.0	 0.0	 0.0	 0.00335811035315	 1	    1.00000	    0.00000	 500.0	 3	    1.10000	    0.90000;
	164	 1	 0.0	 0.0	 0.0	 0.0	 1	    1.00000	    0.00000	 500.0	 3	    1.10000	    0.90000;
	165	 1	 6.027	 21.918	 0.0	 0.0	 1	    1.00000	    0.00000	 500.0	 3	    1.10000	    0.90000;
	166	 2	 2.74	 5.479	 0.0	 0.0	 1	    1.00000	    0.00000	 500.0	 3	    1.10000	    0.90000;
	167	 1	 3.797	 1.704	 0.0	 0.0	 1	    1.00000	    0.00000	 138.0	 3	    1.10000	    0.90000;
	168	 2	 8.027	 0.548	 0.0	 0.0	 1	    1.00000	    0.00000	 138.0	 3	    1.10000	    0.90000;
	169	 1	 4.46	 0.723	 0.0	 0.0	 1	    1.00000	    0.00000	 138.0	 3	    1.10000	    0.90000;
	170	 1	 7.764	 2.312	 0.0	 0.0	 1	    1.00000	    0.00000	 138.0	 3	    1.10000	    0.90000;
	171	 1	 2.312	 0.548	 0.0	 0.0	 1	    1.00000	    0.00000	 138.0	 3	    1.10000	    0.90000;
	172	 1	 72.279	 31.264	 0.0	 16.0407575511	 1	    1.00000	    0.00000	 138.0	 3	    1.10000	    0.90000;
	173	 1	 0.0	 0.0	 0.0	 0.000126326795128	 1	    1.00000	    0.00000	 32.0	 3	    1.10000	    0.90000;
	174	 1	 0.0	 0.0	 0.0	 0.0	 1	    1.00000	    0.00000	 138.0	 3	    1.10000	    0.90000;
	175	 1	 2.86	 1.156	 0.0	 0.0	 1	    1.00000	    0.00000	 138.0	 3	    1.10000	    0.90000;
	176	 1	 1.43	 0.548	 0.0	 0.0	 1	    1.00000	    0.00000	 138.0	 3	    1.10000	    0.90000;
	177	 1	 0.005	 0.005	 0.0	 0.0	 1	    1.00000	    0.00000	 138.0	 3	    1.10000	    0.90000;
	178	 2	 0.005	 0.005	 0.0	 0.0	 1	    1.00000	    0.00000	 138.0	 3	    1.10000	    0.90000;
	179	 1	 8.586	 2.86	 0.0	 0.0	 1	    1.00000	    0.00000	 138.0	 3	    1.10000	    0.90000;
	180	 1	 9.195	 2.586	 0.0	 0.0	 1	    1.00000	    0.00000	 138.0	 3	    1.10000	    0.90000;
	181	 1	 2.312	 0.274	 0.0	 0.0	 1	    1.00000	    0.00000	 138.0	 3	    1.10000	    0.90000;
	182	 1	 5.945	 0.548	 0.0	 0.0	 1	    1.00000	    0.00000	 138.0	 3	    1.10000	    0.90000;
	183	 2	 8.038	 1.704	 0.0	 0.0	 1	    1.00000	    0.00000	 138.0	 3	    1.10000	    0.90000;
	184	 1	 4.132	 0.548	 0.0	 0.0	 1	    1.00000	    0.00000	 138.0	 3	    1.10000	    0.90000;
	185	 2	 1.156	 0.274	 0.0	 0.0	 1	    1.00000	    0.00000	 138.0	 3	    1.10000	    0.90000;
	186	 1	 3.14	 0.548	 0.0	 0.0	 1	    1.00000	    0.00000	 138.0	 3	    1.10000	    0.90000;
	187	 1	 0.0	 0.0	 0.0	 55.9920014246	 1	    1.00000	    0.00000	 16.0	 3	    1.10000	    0.90000;
	188	 2	 5.178	 1.43	 0.0	 5.27387853308	 1	    1.00000	    0.00000	 138.0	 3	    1.10000	    0.90000;
	189	 1	 2.312	 0.548	 0.0	 0.0	 1	    1.00000	    0.00000	 138.0	 3	    1.10000	    0.90000;
	190	 1	 0.0	 0.0	 0.0	 0.0156527920741	 1	    1.00000	    0.00000	 138.0	 3	    1.10000	    0.90000;
	191	 1	 8.586	 1.43	 0.0	 0.0	 1	    1.00000	    0.00000	 138.0	 3	    1.10000	    0.90000;
	192	 1	 10.899	 3.742	 0.0	 0.0	 1	    1.00000	    0.00000	 138.0	 3	    1.10000	    0.90000;
	193	 1	 4.57	 1.485	 0.0	 0.0	 1	    1.00000	    0.00000	 138.0	 3	    1.10000	    0.90000;
	194	 1	 9.195	 3.468	 0.0	 0.0	 1	    1.00000	    0.00000	 138.0	 3	    1.10000	    0.90000;
	195	 2	 8.038	 1.704	 0.0	 0.0	 1	    1.00000	    0.00000	 138.0	 3	    1.10000	    0.90000;
	196	 1	 3.179	 -0.123	 0.0	 0.0	 1	    1.00000	    0.00000	 138.0	 3	    1.10000	    0.90000;
	197	 1	 4.016	 1.156	 0.0	 0.0	 1	    1.00000	    0.00000	 138.0	 3	    1.10000	    0.90000;
	198	 1	 2.86	 0.274	 0.0	 0.0	 1	    1.00000	    0.00000	 138.0	 3	    1.10000	    0.90000;
	199	 1	 0.0	 0.0	 0.0	 -2.49761461351	 1	    1.00000	    0.00000	 138.0	 3	    1.10000	    0.90000;
	200	 1	 0.0	 0.0	 0.0	 -18.0621211952	 1	    1.00000	    0.00000	 138.0	 3	    1.10000	    0.90000;
	201	 2	 5.178	 0.548	 0.0	 0.0	 1	    1.00000	    0.00000	 138.0	 3	    1.10000	    0.90000;
	202	 1	 11.792	 0.351	 0.0	 0.0	 1	    1.00000	    0.00000	 138.0	 3	    1.10000	    0.90000;
	203	 1	 5.726	 0.548	 0.0	 0.0	 1	    1.00000	    0.00000	 138.0	 3	    1.10000	    0.90000;
	204	 1	 4.57	 1.704	 0.0	 0.0	 1	    1.00000	    0.00000	 138.0	 3	    1.10000	    0.90000;
	205	 1	 0.0	 0.0	 0.0	 0.0	 1	    1.00000	    0.00000	 138.0	 3	    1.10000	    0.90000;
	206	 1	 8.038	 1.704	 0.0	 0.0	 1	    1.00000	    0.00000	 138.0	 3	    1.10000	    0.90000;
	207	 1	 16.679	 2.312	 0.0	 0.0	 1	    1.00000	    0.00000	 138.0	 3	    1.10000	    0.90000;
	208	 1	 10.351	 2.586	 0.0	 0.0	 1	    1.00000	    0.00000	 138.0	 3	    1.10000	    0.90000;
	209	 1	 6.329	 0.548	 0.0	 0.0	 1	    1.00000	    0.00000	 138.0	 3	    1.10000	    0.90000;
	210	 1	 9.742	 2.312	 0.0	 0.0	 1	    1.00000	    0.00000	 138.0	 3	    1.10000	    0.90000;
	211	 1	 0.0	 0.0	 0.0	 0.0	 1	    1.00000	    0.00000	 138.0	 3	    1.10000	    0.90000;
	212	 1	 0.146	 -0.826	 0.0	 0.0	 1	    1.00000	    0.00000	 138.0	 3	    1.10000	    0.90000;
	213	 1	 1.665	 -0.471	 0.0	 0.0	 1	    1.00000	    0.00000	 138.0	 3	    1.10000	    0.90000;
	214	 1	 0.0	 0.0	 0.0	 -0.0233973030703	 1	    1.00000	    0.00000	 138.0	 3	    1.10000	    0.90000;
	215	 1	 0.0	 0.0	 0.0	 -6.54915649581	 1	    1.00000	    0.00000	 138.0	 3	    1.10000	    0.90000;
	216	 1	 0.0	 0.0	 0.0	 0.0	 1	    1.00000	    0.00000	 500.0	 3	    1.10000	    0.90000;
	217	 2	 0.0	 0.0	 0.0	 0.0	 1	    1.00000	    0.00000	 345.0	 4	    1.10000	    0.90000;
	218	 1	 7.333	 71.228	 0.0	 0.0	 1	    1.00000	    0.00000	 345.0	 4	    1.10000	    0.90000;
	219	 1	 0.0	 0.0	 0.0	 0.0	 1	    1.00000	    0.00000	 345.0	 4	    1.10000	    0.90000;
	220	 1	 0.0	 0.0	 0.0	 0.0	 1	    1.00000	    0.00000	 345.0	 4	    1.10000	    0.90000;
	221	 1	 27.545	 7.896	 0.0	 13.922	 1	    1.00000	    0.00000	 345.0	 4	    1.10000	    0.90000;
	222	 1	 53.672	 33.197	 0.0	 0.0	 1	    1.00000	    0.00000	 345.0	 4	    1.10000	    0.90000;
	223	 1	 5.479	 24.11	 0.0	 0.0	 1	    1.00000	    0.00000	 345.0	 4	    1.10000	    0.90000;
	224	 2	 5.479	 24.11	 0.0	 0.0	 1	    1.00000	    0.00000	 345.0	 4	    1.10000	    0.90000;
	225	 2	 12.637	 -43.088	 0.0	 -110.36	 1	    1.00000	    0.00000	 345.0	 4	    1.10000	    0.90000;
	226	 1	 22.33	 -10.636	 0.0	 -18.625	 1	    1.00000	    0.00000	 345.0	 4	    1.10000	    0.90000;
	227	 1	 0.0	 -0.433	 0.0	 0.0	 1	    1.00000	    0.00000	 345.0	 4	    1.10000	    0.90000;
	228	 1	 0.0	 -0.433	 0.0	 0.0	 1	    1.00000	    0.00000	 345.0	 4	    1.10000	    0.90000;
	229	 1	 1.989	 0.712	 0.0	 0.0	 1	    1.00000	    0.00000	 138.0	 4	    1.10000	    0.90000;
	230	 1	 0.0	 0.0	 0.0	 0.0	 1	    1.00000	    0.00000	 138.0	 4	    1.10000	    0.90000;
	231	 1	 16.109	 -5.344	 0.0	 0.0	 1	    1.00000	    0.00000	 138.0	 4	    1.10000	    0.90000;
	232	 1	 8.32	 2.501	 0.0	 4.355	 1	    1.00000	    0.00000	 138.0	 4	    1.10000	    0.90000;
	233	 1	 5.852	 2.532	 0.0	 0.0	 1	    1.00000	    0.00000	 138.0	 4	    1.10000	    0.90000;
	234	 1	 2.986	 2.252	 0.0	 0.0	 1	    1.00000	    0.00000	 138.0	 4	    1.10000	    0.90000;
	235	 1	 35.375	 8.686	 0.0	 0.0	 1	    1.00000	    0.00000	 138.0	 4	    1.10000	    0.90000;
	236	 1	 0.877	 -0.296	 0.0	 0.0	 1	    1.00000	    0.00000	 138.0	 4	    1.10000	    0.90000;
	237	 1	 0.0	 0.0	 0.0	 0.0	 1	    1.00000	    0.00000	 138.0	 4	    1.10000	    0.90000;
	238	 1	 31.233	 10.575	 0.0	 0.0	 1	    1.00000	    0.00000	 138.0	 4	    1.10000	    0.90000;
	239	 1	 0.0	 0.0	 0.0	 0.0	 1	    1.00000	    0.00000	 138.0	 4	    1.10000	    0.90000;
	240	 1	 0.0	 0.0	 0.0	 0.0	 1	    1.00000	    0.00000	 138.0	 4	    1.10000	    0.90000;
	241	 1	 21.207	 4.371	 0.0	 0.0	 1	    1.00000	    0.00000	 138.0	 4	    1.10000	    0.90000;
	242	 1	 0.647	 0.11	 0.0	 0.0	 1	    1.00000	    0.00000	 138.0	 4	    1.10000	    0.90000;
	243	 1	 10.329	 -5.379	 0.0	 0.0	 1	    1.00000	    0.00000	 138.0	 4	    1.10000	    0.90000;
	244	 1	 2.46	 0.822	 0.0	 0.0	 1	    1.00000	    0.00000	 138.0	 4	    1.10000	    0.90000;
	245	 1	 0.0	 0.0	 0.0	 -10.356	 1	    1.00000	    0.00000	 138.0	 4	    1.10000	    0.90000;
	246	 2	 5.479	 24.11	 0.0	 0.0	 1	    1.00000	    0.00000	 138.0	 4	    1.10000	    0.90000;
	247	 1	 5.211	 2.033	 0.0	 0.0	 1	    1.00000	    0.00000	 138.0	 4	    1.10000	    0.90000;
	248	 2	 0.0	 0.0	 0.0	 0.0	 1	    1.00000	    0.00000	 138.0	 4	    1.10000	    0.90000;
	249	 1	 3.282	 1.118	 0.0	 0.0	 1	    1.00000	    0.00000	 138.0	 4	    1.10000	    0.90000;
	250	 1	 0.0	 0.0	 0.0	 0.0	 1	    1.00000	    0.00000	 138.0	 4	    1.10000	    0.90000;
	251	 1	 4.099	 2.197	 0.0	 0.0	 1	    1.00000	    0.00000	 138.0	 4	    1.10000	    0.90000;
	252	 2	 10.685	 26.301	 0.0	 0.0	 1	    1.00000	    0.00000	 138.0	 4	    1.10000	    0.90000;
	253	 1	 25.151	 5.863	 0.0	 6.238	 1	    1.00000	    0.00000	 138.0	 4	    1.10000	    0.90000;
	254	 1	 33.527	 -5.252	 0.0	 0.0	 1	    1.00000	    0.00000	 138.0	 4	    1.10000	    0.90000;
	255	 1	 14.838	 5.558	 0.0	 7.309	 1	    1.00000	    0.00000	 138.0	 4	    1.10000	    0.90000;
	256	 1	 1.348	 0.504	 0.0	 0.0	 1	    1.00000	    0.00000	 138.0	 4	    1.10000	    0.90000;
	257	 1	 0.701	 0.164	 0.0	 0.0	 1	    1.00000	    0.00000	 138.0	 4	    1.10000	    0.90000;
	258	 1	 0.0	 0.0	 0.0	 0.0	 1	    1.00000	    0.00000	 138.0	 4	    1.10000	    0.90000;
	259	 1	 3.518	 1.249	 0.0	 0.0	 1	    1.00000	    0.00000	 138.0	 4	    1.10000	    0.90000;
	260	 1	 6.751	 2.614	 0.0	 0.0	 1	    1.00000	    0.00000	 138.0	 4	    1.10000	    0.90000;
	261	 1	 1.929	 0.603	 0.0	 0.0	 1	    1.00000	    0.00000	 138.0	 4	    1.10000	    0.90000;
	262	 1	 0.0	 0.0	 0.0	 0.0	 1	    1.00000	    0.00000	 138.0	 4	    1.10000	    0.90000;
	263	 1	 1.227	 0.384	 0.0	 0.0	 1	    1.00000	    0.00000	 138.0	 4	    1.10000	    0.90000;
	264	 1	 0.0	 0.0	 0.0	 0.0	 1	    1.00000	    0.00000	 138.0	 4	    1.10000	    0.90000;
	265	 1	 2.751	 0.964	 0.0	 0.0	 1	    1.00000	    0.00000	 138.0	 4	    1.10000	    0.90000;
	266	 1	 3.041	 1.047	 0.0	 0.0	 1	    1.00000	    0.00000	 138.0	 4	    1.10000	    0.90000;
	267	 1	 0.0	 0.0	 0.0	 0.0	 1	    1.00000	    0.00000	 138.0	 4	    1.10000	    0.90000;
	268	 1	 10.233	 5.559	 0.0	 0.0	 1	    1.00000	    0.00000	 138.0	 4	    1.10000	    0.90000;
	269	 1	 2.601	 -0.283	 0.0	 0.0	 1	    1.00000	    0.00000	 138.0	 4	    1.10000	    0.90000;
	270	 1	 2.225	 0.712	 0.0	 0.0	 1	    1.00000	    0.00000	 138.0	 4	    1.10000	    0.90000;
	271	 1	 34.175	 3.843	 0.0	 5.929	 1	    1.00000	    0.00000	 138.0	 4	    1.10000	    0.90000;
	272	 1	 0.0	 0.0	 0.0	 0.0	 1	    1.00000	    0.00000	 138.0	 4	    1.10000	    0.90000;
	273	 1	 0.0	 0.0	 0.0	 0.0	 1	    1.00000	    0.00000	 138.0	 4	    1.10000	    0.90000;
	274	 1	 222.466	 0.0	 0.0	 0.0	 1	    1.00000	    0.00000	 345.0	 4	    1.10000	    0.90000;
	275	 1	 44.658	 47.066	 0.0	 -151.551612149	 1	    1.00000	    0.00000	 345.0	 5	    1.10000	    0.90000;
	276	 1	 0.0	 0.0	 0.0	 0.0	 1	    1.00000	    0.00000	 500.0	 5	    1.10000	    0.90000;
	277	 1	 0.0	 0.0	 0.0	 110.69	 1	    1.00000	    0.00000	 500.0	 5	    1.10000	    0.90000;
	278	 1	 0.0	 0.0	 0.0	 0.0	 1	    1.00000	    0.00000	 500.0	 5	    1.10000	    0.90000;
	279	 1	 0.0	 0.0	 0.0	 0.0	 1	    1.00000	    0.00000	 500.0	 5	    1.10000	    0.90000;
	280	 1	 84.714	 39.301	 0.0	 0.0	 1	    1.00000	    0.00000	 500.0	 5	    1.10000	    0.90000;
	281	 1	 0.0	 0.0	 0.0	 2.151	 1	    1.00000	    0.00000	 345.0	 5	    1.10000	    0.90000;
	282	 2	 0.0	 0.0	 0.0	 0.0	 1	    1.00000	    0.00000	 500.0	 5	    1.10000	    0.90000;
	284	 1	 0.0	 0.0	 0.0	 0.0	 1	    1.00000	    0.00000	 500.0	 5	    1.10000	    0.90000;
	285	 1	 0.0	 0.0	 0.0	 -161.346	 1	    1.00000	    0.00000	 500.0	 5	    1.10000	    0.90000;
	286	 1	 47.609	 32.965	 0.0	 0.0	 1	    1.00000	    0.00000	 500.0	 5	    1.10000	    0.90000;
	287	 1	 0.0	 0.0	 0.0	 0.000155218244784	 1	    1.00000	    0.00000	 500.0	 5	    1.10000	    0.90000;
	288	 1	 0.0	 0.0	 0.0	 0.0	 1	    1.00000	    0.00000	 500.0	 5	    1.10000	    0.90000;
	289	 2	 6.027	 21.918	 0.0	 0.0	 1	    1.00000	    0.00000	 500.0	 5	    1.10000	    0.90000;
	290	 1	 2.74	 5.479	 0.0	 0.0	 1	    1.00000	    0.00000	 500.0	 5	    1.10000	    0.90000;
	291	 1	 3.797	 1.704	 0.0	 0.0	 1	    1.00000	    0.00000	 138.0	 5	    1.10000	    0.90000;
	292	 2	 8.027	 0.548	 0.0	 0.0	 1	    1.00000	    0.00000	 138.0	 5	    1.10000	    0.90000;
	293	 1	 4.46	 0.723	 0.0	 0.0	 1	    1.00000	    0.00000	 138.0	 5	    1.10000	    0.90000;
	294	 1	 7.764	 2.312	 0.0	 0.0	 1	    1.00000	    0.00000	 138.0	 5	    1.10000	    0.90000;
	295	 1	 2.312	 0.548	 0.0	 0.0	 1	    1.00000	    0.00000	 138.0	 5	    1.10000	    0.90000;
	296	 1	 72.279	 31.264	 0.0	 2.81540352339	 1	    1.00000	    0.00000	 138.0	 5	    1.10000	    0.90000;
	297	 2	 0.0	 0.0	 0.0	 0.0	 1	    1.00000	    0.00000	 32.0	 5	    1.10000	    0.90000;
	298	 1	 0.0	 0.0	 0.0	 0.0	 1	    1.00000	    0.00000	 138.0	 5	    1.10000	    0.90000;
	299	 1	 2.86	 1.156	 0.0	 0.0	 1	    1.00000	    0.00000	 138.0	 5	    1.10000	    0.90000;
	300	 1	 1.43	 0.548	 0.0	 0.0	 1	    1.00000	    0.00000	 138.0	 5	    1.10000	    0.90000;
	301	 1	 0.005	 0.005	 0.0	 0.0	 1	    1.00000	    0.00000	 138.0	 5	    1.10000	    0.90000;
	302	 1	 0.005	 0.005	 0.0	 0.0	 1	    1.00000	    0.00000	 138.0	 5	    1.10000	    0.90000;
	303	 1	 8.586	 2.86	 0.0	 0.0	 1	    1.00000	    0.00000	 138.0	 5	    1.10000	    0.90000;
	304	 1	 9.195	 2.586	 0.0	 0.0	 1	    1.00000	    0.00000	 138.0	 5	    1.10000	    0.90000;
	305	 1	 2.312	 0.274	 0.0	 0.0	 1	    1.00000	    0.00000	 138.0	 5	    1.10000	    0.90000;
	306	 1	 5.945	 0.548	 0.0	 0.0	 1	    1.00000	    0.00000	 138.0	 5	    1.10000	    0.90000;
	307	 1	 8.038	 1.704	 0.0	 0.0	 1	    1.00000	    0.00000	 138.0	 5	    1.10000	    0.90000;
	308	 1	 4.132	 0.548	 0.0	 0.0	 1	    1.00000	    0.00000	 138.0	 5	    1.10000	    0.90000;
	309	 1	 1.156	 0.274	 0.0	 22.813	 1	    1.00000	    0.00000	 138.0	 5	    1.10000	    0.90000;
	310	 1	 3.14	 0.548	 0.0	 0.0	 1	    1.00000	    0.00000	 138.0	 5	    1.10000	    0.90000;
	311	 2	 0.0	 0.0	 0.0	 0.0	 1	    1.00000	    0.00000	 16.0	 5	    1.10000	    0.90000;
	312	 1	 5.178	 1.43	 0.0	 10.7997887402	 1	    1.00000	    0.00000	 138.0	 5	    1.10000	    0.90000;
	313	 1	 2.312	 0.548	 0.0	 0.0	 1	    1.00000	    0.00000	 138.0	 5	    1.10000	    0.90000;