%%%%%%%%%%%%%%%%%%%%%%%%%%%%%%%%%%%%%%%%%%%%%%%%%%%%%%%%%%%%%%%%%%%%%%%%%%%
%%%%                                                                  %%%%%
%%%%    IEEE PES Power Grid Library - Optimal Power Flow - v17.07     %%%%%
%%%%          (https://github.com/power-grid-lib/pglib-opf)           %%%%%
%%%%             Benchmark Group - Small Angle Difference             %%%%%
%%%%                         27 - June - 2017                         %%%%%
%%%%                                                                  %%%%%
%%%%%%%%%%%%%%%%%%%%%%%%%%%%%%%%%%%%%%%%%%%%%%%%%%%%%%%%%%%%%%%%%%%%%%%%%%%
function mpc = pglib_opf_case162_ieee_dtc__sad
mpc.version = '2';
mpc.baseMVA = 100.0;

%% bus data
%	bus_i	type	Pd	Qd	Gs	Bs	area	Vm	Va	baseKV	zone	Vmax	Vmin
mpc.bus = [
	1	 1	 0.0	 0.0	 0.0	 -100.0	 1	    1.05361	    1.93542	 345.0	 9	    1.06000	    0.94000;
	2	 1	 0.0	 0.0	 0.0	 0.0	 1	    1.03852	   -3.04815	 345.0	 9	    1.06000	    0.94000;
	3	 1	 370.0	 96.9	 0.0	 0.0	 1	    1.01123	   -5.85032	 161.0	 12	    1.06000	    0.94000;
	4	 1	 0.0	 0.0	 0.0	 0.0	 1	    1.01847	   -7.26152	 345.0	 3	    1.06000	    0.94000;
	5	 1	 0.0	 0.0	 0.0	 -50.0	 1	    1.05031	    3.18137	 345.0	 8	    1.06000	    0.94000;
	6	 2	 0.0	 0.0	 0.0	 0.0	 1	    1.03772	    8.09534	 22.0	 9	    1.06000	    0.94000;
	7	 1	 0.0	 0.0	 0.0	 0.0	 1	    1.03136	   -3.38485	 345.0	 9	    1.06000	    0.94000;
	8	 1	 398.0	 0.0	 0.0	 0.0	 1	    1.05132	   -6.77574	 115.0	 12	    1.06000	    0.94000;
	9	 1	 0.0	 0.0	 0.0	 0.0	 1	    1.03068	   -0.68170	 345.0	 8	    1.06000	    0.94000;
	10	 1	 226.0	 0.0	 0.0	 0.0	 1	    0.99119	  -11.58128	 230.0	 12	    1.06000	    0.94000;
	11	 1	 0.0	 0.0	 0.0	 0.0	 1	    1.00026	   -8.03329	 230.0	 10	    1.06000	    0.94000;
	12	 1	 193.0	 0.0	 0.0	 0.0	 1	    1.05411	   -6.62255	 115.0	 12	    1.06000	    0.94000;
	13	 1	 204.0	 0.0	 0.0	 0.0	 1	    1.03647	   -4.44838	 345.0	 12	    1.06000	    0.94000;
	14	 1	 381.0	 0.0	 0.0	 0.0	 1	    1.04827	   -3.65999	 161.0	 12	    1.06000	    0.94000;
	15	 1	 -80.0	 0.0	 0.0	 0.0	 1	    1.02168	   -0.02610	 230.0	 12	    1.06000	    0.94000;
	16	 1	 -54.2	 0.0	 0.0	 0.0	 1	    1.05397	   -5.11915	 161.0	 12	    1.06000	    0.94000;
	17	 1	 -116.5	 0.0	 0.0	 0.0	 1	    1.05758	   -4.45846	 161.0	 12	    1.06000	    0.94000;
	18	 1	 34.4	 11.67	 0.0	 0.0	 1	    1.06000	   -8.84229	 161.0	 6	    1.06000	    0.94000;
	19	 1	 64.4	 0.0	 0.0	 0.0	 1	    1.00110	  -12.75657	 161.0	 12	    1.06000	    0.94000;
	20	 1	 37.9	 12.5	 0.0	 0.0	 1	    0.97381	   -9.82678	 69.0	 10	    1.06000	    0.94000;
	21	 1	 -69.8	 0.0	 0.0	 0.0	 1	    1.04585	   -5.69216	 161.0	 12	    1.06000	    0.94000;
	22	 1	 17.39	 5.27	 0.0	 0.0	 1	    1.02760	  -12.15687	 161.0	 6	    1.06000	    0.94000;
	23	 1	 63.5	 0.0	 0.0	 0.0	 1	    0.99600	  -10.54533	 161.0	 12	    1.06000	    0.94000;
	24	 1	 0.0	 0.0	 0.0	 0.0	 1	    1.00446	   -8.80895	 161.0	 6	    1.06000	    0.94000;
	25	 1	 0.0	 0.0	 0.0	 -50.0	 1	    0.98952	   -4.80184	 345.0	 6	    1.06000	    0.94000;
	26	 1	 0.0	 0.0	 0.0	 -50.0	 1	    0.99393	    3.39786	 345.0	 1	    1.06000	    0.94000;
	27	 1	 324.0	 57.9	 0.0	 0.0	 1	    0.99701	   -5.74425	 345.0	 12	    1.06000	    0.94000;
	28	 1	 38.47	 13.17	 0.0	 0.0	 1	    0.98675	  -11.54446	 161.0	 6	    1.06000	    0.94000;
	29	 1	 28.31	 9.03	 0.0	 0.0	 1	    0.99032	  -13.20143	 161.0	 6	    1.06000	    0.94000;
	30	 1	 101.2	 32.52	 0.0	 15.0	 1	    1.01112	  -14.81653	 161.0	 6	    1.06000	    0.94000;
	31	 1	 72.5	 0.0	 0.0	 0.0	 1	    0.98970	  -12.35553	 161.0	 12	    1.06000	    0.94000;
	32	 1	 52.7	 15.06	 0.0	 20.0	 1	    1.01321	  -15.99933	 161.0	 6	    1.06000	    0.94000;
	33	 1	 45.17	 15.06	 0.0	 20.0	 1	    0.99815	  -17.88761	 161.0	 6	    1.06000	    0.94000;
	34	 1	 14.18	 5.25	 0.0	 3.2	 1	    0.98946	  -17.75962	 161.0	 1	    1.06000	    0.94000;
	35	 1	 54.48	 14.63	 0.0	 5.0	 1	    0.98438	  -19.20380	 161.0	 1	    1.06000	    0.94000;
	36	 1	 31.96	 8.68	 0.0	 3.0	 1	    0.99246	  -18.13573	 161.0	 2	    1.06000	    0.94000;
	37	 1	 0.0	 0.0	 0.0	 0.0	 1	    0.99882	   -5.60986	 345.0	 11	    1.06000	    0.94000;
	38	 1	 14.76	 4.08	 0.0	 1.5	 1	    1.01086	  -12.68438	 161.0	 2	    1.06000	    0.94000;
	39	 1	 0.0	 0.0	 0.0	 0.0	 1	    0.97868	   -7.65019	 345.0	 6	    1.06000	    0.94000;
	40	 1	 52.88	 17.6	 0.0	 0.0	 1	    0.98919	  -16.63570	 161.0	 1	    1.06000	    0.94000;
	41	 1	 39.2	 12.8	 0.0	 0.0	 1	    0.99056	  -14.59001	 161.0	 1	    1.06000	    0.94000;
	42	 1	 0.0	 0.0	 0.0	 0.0	 1	    0.98345	   -7.13484	 345.0	 2	    1.06000	    0.94000;
	43	 1	 41.5	 0.0	 0.0	 0.0	 1	    0.98745	  -10.23360	 161.0	 12	    1.06000	    0.94000;
	44	 1	 16.32	 3.71	 0.0	 0.0	 1	    0.98038	  -10.66327	 161.0	 2	    1.06000	    0.94000;
	45	 1	 20.02	 5.41	 0.0	 1.9	 1	    0.98515	  -11.84623	 161.0	 2	    1.06000	    0.94000;
	46	 1	 65.31	 22.3	 0.0	 26.2	 1	    0.99027	  -14.57526	 161.0	 10	    1.06000	    0.94000;
	47	 1	 4.82	 1.56	 0.0	 0.0	 1	    0.97179	  -16.55639	 161.0	 2	    1.06000	    0.94000;
	48	 1	 33.76	 22.86	 0.0	 0.0	 1	    0.97300	  -14.43219	 161.0	 10	    1.06000	    0.94000;
	49	 1	 6.82	 1.78	 0.0	 0.0	 1	    0.96967	  -16.91951	 161.0	 2	    1.06000	    0.94000;
	50	 1	 99.7	 0.0	 0.0	 0.0	 1	    0.97645	  -13.03667	 161.0	 12	    1.06000	    0.94000;
	51	 1	 0.0	 0.0	 0.0	 0.0	 1	    0.97804	  -11.54974	 161.0	 3	    1.06000	    0.94000;
	52	 1	 218.2	 42.8	 0.0	 0.0	 1	    1.00727	  -13.30595	 161.0	 3	    1.06000	    0.94000;
	53	 1	 0.0	 0.0	 0.0	 0.0	 1	    0.99065	   -7.54132	 161.0	 10	    1.06000	    0.94000;
	54	 1	 70.34	 29.57	 0.0	 0.0	 1	    0.97407	  -13.63013	 161.0	 10	    1.06000	    0.94000;
	55	 1	 0.0	 0.0	 0.0	 0.0	 1	    0.99041	   -7.33730	 161.0	 1	    1.06000	    0.94000;
	56	 1	 25.29	 7.26	 0.0	 3.2	 1	    0.97973	  -15.95692	 161.0	 7	    1.06000	    0.94000;
	57	 1	 48.48	 15.61	 0.0	 0.0	 1	    0.97522	  -13.28551	 161.0	 1	    1.06000	    0.94000;
	58	 1	 0.0	 0.0	 0.0	 0.0	 1	    1.01303	   -4.46879	 230.0	 10	    1.06000	    0.94000;
	59	 1	 84.43	 27.05	 0.0	 0.0	 1	    0.98899	   -9.03423	 230.0	 10	    1.06000	    0.94000;
	60	 1	 244.0	 0.0	 0.0	 0.0	 1	    1.00910	   -9.67346	 115.0	 12	    1.06000	    0.94000;
	61	 1	 0.0	 0.0	 0.0	 0.0	 1	    0.99404	   -7.17483	 230.0	 10	    1.06000	    0.94000;
	62	 1	 -865.6	 0.0	 0.0	 0.0	 1	    1.02620	    6.10709	 230.0	 12	    1.06000	    0.94000;
	63	 1	 59.1	 0.0	 0.0	 0.0	 1	    0.99652	   -5.43230	 230.0	 12	    1.06000	    0.94000;
	64	 1	 0.0	 0.0	 0.0	 0.0	 1	    1.03196	   -4.80926	 345.0	 10	    1.06000	    0.94000;
	65	 1	 -26.3	 0.0	 0.0	 0.0	 1	    1.03167	   -1.06381	 345.0	 12	    1.06000	    0.94000;
	66	 1	 0.0	 0.0	 0.0	 -50.0	 1	    1.00475	   -7.22671	 345.0	 10	    1.06000	    0.94000;
	67	 1	 22.54	 7.03	 0.0	 6.0	 1	    0.99072	  -16.86931	 161.0	 7	    1.06000	    0.94000;
	68	 1	 40.42	 12.68	 0.0	 12.0	 1	    1.00094	  -15.12452	 161.0	 7	    1.06000	    0.94000;
	69	 1	 0.0	 0.0	 0.0	 0.0	 1	    1.00682	  -13.70511	 161.0	 1	    1.06000	    0.94000;
	70	 1	 0.0	 0.0	 0.0	 0.0	 1	    1.01107	   -1.92734	 161.0	 1	    1.06000	    0.94000;
	71	 1	 29.87	 11.93	 0.0	 12.0	 1	    0.97872	   -9.26097	 161.0	 1	    1.06000	    0.94000;
	72	 1	 427.0	 0.0	 0.0	 0.0	 1	    1.03556	   -3.53774	 161.0	 12	    1.06000	    0.94000;
	73	 2	 0.0	 0.0	 0.0	 0.0	 1	    1.00232	   -1.33122	 20.0	 1	    1.06000	    0.94000;
	74	 1	 0.0	 0.0	 0.0	 0.0	 1	    0.99657	   -8.08338	 345.0	 5	    1.06000	    0.94000;
	75	 1	 0.0	 0.0	 0.0	 -50.0	 1	    1.02713	    1.74500	 345.0	 8	    1.06000	    0.94000;
	76	 2	 0.0	 0.0	 0.0	 0.0	 1	    0.94000	    9.30227	 24.0	 1	    1.06000	    0.94000;
	77	 1	 26.41	 8.78	 0.0	 4.7	 1	    0.99902	  -15.27864	 161.0	 1	    1.06000	    0.94000;
	78	 1	 79.12	 0.0	 0.0	 0.0	 1	    1.00810	  -13.04411	 161.0	 5	    1.06000	    0.94000;
	79	 1	 0.0	 0.0	 0.0	 0.0	 1	    1.01712	  -10.81494	 161.0	 5	    1.06000	    0.94000;
	80	 1	 15.76	 5.25	 0.0	 2.8	 1	    0.99142	  -13.62033	 161.0	 1	    1.06000	    0.94000;
	81	 1	 50.88	 16.8	 0.0	 22.1	 1	    0.98594	  -21.05780	 69.0	 1	    1.06000	    0.94000;
	82	 1	 62.28	 20.26	 0.0	 10.4	 1	    0.98642	  -16.56618	 161.0	 1	    1.06000	    0.94000;
	83	 1	 0.0	 0.0	 0.0	 0.0	 1	    0.98856	  -15.59124	 161.0	 1	    1.06000	    0.94000;
	84	 1	 37.9	 9.49	 0.0	 2.6	 1	    0.98026	  -11.84317	 161.0	 2	    1.06000	    0.94000;
	85	 1	 40.52	 11.26	 0.0	 12.0	 1	    0.95574	  -17.46718	 161.0	 1	    1.06000	    0.94000;
	86	 1	 50.73	 13.35	 0.0	 12.0	 1	    0.95136	  -20.57161	 161.0	 2	    1.06000	    0.94000;
	87	 1	 16.91	 4.23	 0.0	 0.0	 1	    0.96103	  -18.72555	 115.0	 2	    1.06000	    0.94000;
	88	 1	 60.6	 4.44	 0.0	 0.0	 1	    0.96881	  -19.39608	 69.0	 4	    1.06000	    0.94000;
	89	 1	 0.0	 0.0	 0.0	 0.0	 1	    0.97113	  -21.69322	 115.0	 2	    1.06000	    0.94000;
	90	 1	 50.21	 16.76	 0.0	 10.0	 1	    0.94000	  -23.98614	 115.0	 2	    1.06000	    0.94000;
	91	 1	 51.24	 12.83	 0.0	 0.0	 1	    0.97609	  -10.41558	 161.0	 2	    1.06000	    0.94000;
	92	 1	 36.12	 9.05	 0.0	 0.0	 1	    0.96994	  -11.71671	 161.0	 2	    1.06000	    0.94000;
	93	 1	 103.8	 34.56	 0.0	 0.0	 1	    0.98367	   -6.00160	 161.0	 2	    1.06000	    0.94000;
	94	 1	 164.0	 6.49	 0.0	 0.0	 1	    1.00371	  -11.39934	 161.0	 5	    1.06000	    0.94000;
	95	 1	 117.2	 39.01	 0.0	 0.0	 1	    0.99006	  -10.10514	 115.0	 2	    1.06000	    0.94000;
	96	 1	 119.2	 0.0	 0.0	 0.0	 1	    0.98182	  -19.51644	 115.0	 2	    1.06000	    0.94000;
	97	 1	 22.84	 5.71	 0.0	 0.0	 1	    0.99448	  -11.60128	 115.0	 2	    1.06000	    0.94000;
	98	 1	 151.1	 50.35	 0.0	 0.0	 1	    0.99642	   -8.83272	 115.0	 2	    1.06000	    0.94000;
	99	 2	 0.0	 0.0	 0.0	 0.0	 1	    0.96160	   -3.73513	 18.0	 2	    1.06000	    0.94000;
	100	 1	 23.21	 6.9	 0.0	 3.0	 1	    0.97194	  -20.47123	 115.0	 2	    1.06000	    0.94000;
	101	 2	 0.0	 0.0	 0.0	 0.0	 1	    0.98940	  -14.00464	 14.0	 2	    1.06000	    0.94000;
	102	 1	 16.54	 4.08	 0.0	 0.0	 1	    0.97393	  -11.40131	 161.0	 2	    1.06000	    0.94000;
	103	 1	 322.0	 0.0	 0.0	 0.0	 1	    0.99138	   -9.31194	 161.0	 12	    1.06000	    0.94000;
	104	 1	 31.52	 10.46	 0.0	 5.6	 1	    0.98175	  -19.39988	 115.0	 2	    1.06000	    0.94000;
	105	 1	 24.84	 6.23	 0.0	 1.7	 1	    1.01361	  -13.14925	 115.0	 2	    1.06000	    0.94000;
	106	 1	 0.0	 0.0	 0.0	 0.0	 1	    0.97427	  -17.41778	 161.0	 4	    1.06000	    0.94000;
	107	 1	 35.41	 5.41	 0.0	 0.0	 1	    0.96072	  -18.44306	 161.0	 4	    1.06000	    0.94000;
	108	 3	 0.0	 0.0	 0.0	 0.0	 1	    0.94000	    0.00000	 22.0	 2	    1.06000	    0.94000;
	109	 1	 0.0	 0.0	 0.0	 0.0	 1	    0.99868	   -7.48591	 345.0	 5	    1.06000	    0.94000;
	110	 1	 0.0	 0.0	 0.0	 0.0	 1	    1.04000	   -2.15002	 161.0	 3	    1.06000	    0.94000;
	111	 1	 65.41	 16.72	 0.0	 0.0	 1	    1.01324	   -6.81002	 161.0	 3	    1.06000	    0.94000;
	112	 1	 0.0	 0.0	 0.0	 -50.0	 1	    1.04322	    0.36989	 345.0	 3	    1.06000	    0.94000;
	113	 1	 32.7	 0.0	 0.0	 0.0	 1	    1.03624	   -3.58010	 161.0	 12	    1.06000	    0.94000;
	114	 2	 0.0	 0.0	 0.0	 0.0	 1	    1.01896	    4.18058	 14.0	 3	    1.06000	    0.94000;
	115	 1	 17.32	 3.34	 0.0	 0.0	 1	    1.01510	   -9.67429	 161.0	 3	    1.06000	    0.94000;
	116	 1	 56.08	 11.2	 0.0	 0.0	 1	    1.01827	  -11.15293	 161.0	 3	    1.06000	    0.94000;
	117	 1	 101.9	 20.06	 0.0	 0.0	 1	    1.00965	  -11.72604	 161.0	 3	    1.06000	    0.94000;
	118	 2	 0.0	 0.0	 0.0	 0.0	 1	    1.00374	   -7.69222	 14.0	 3	    1.06000	    0.94000;
	119	 1	 0.0	 0.0	 0.0	 0.0	 1	    1.00389	   -9.12272	 345.0	 3	    1.06000	    0.94000;
	120	 1	 0.0	 0.0	 0.0	 0.0	 1	    1.03833	    0.01118	 345.0	 8	    1.06000	    0.94000;
	121	 2	 0.0	 0.0	 0.0	 0.0	 1	    1.03186	    7.55782	 24.0	 3	    1.06000	    0.94000;
	122	 1	 47.28	 9.36	 0.0	 0.0	 1	    0.94708	  -20.60667	 161.0	 3	    1.06000	    0.94000;
	123	 1	 165.0	 0.0	 0.0	 0.0	 1	    0.94394	  -21.10666	 161.0	 12	    1.06000	    0.94000;
	124	 1	 -571.0	 90.9	 0.0	 0.0	 1	    0.99109	   -5.52483	 345.0	 12	    1.06000	    0.94000;
	125	 2	 2000.0	 0.0	 0.0	 0.0	 1	    1.03304	   -5.32611	 345.0	 12	    1.06000	    0.94000;
	126	 1	 -467.0	 0.0	 0.0	 0.0	 1	    1.01117	   -1.86519	 345.0	 12	    1.06000	    0.94000;
	127	 1	 -52.6	 0.0	 0.0	 0.0	 1	    1.02153	   -4.83569	 345.0	 12	    1.06000	    0.94000;
	128	 1	 0.0	 0.0	 0.0	 0.0	 1	    1.03365	    0.00826	 345.0	 8	    1.06000	    0.94000;
	129	 1	 0.0	 0.0	 0.0	 0.0	 1	    1.03979	   -0.08883	 345.0	 8	    1.06000	    0.94000;
	130	 2	 0.0	 0.0	 0.0	 0.0	 1	    1.00684	    9.67208	 22.0	 8	    1.06000	    0.94000;
	131	 2	 0.0	 0.0	 0.0	 0.0	 1	    1.03072	    8.04862	 18.0	 8	    1.06000	    0.94000;
	132	 1	 159.0	 0.0	 0.0	 0.0	 1	    1.04014	   -3.02541	 161.0	 12	    1.06000	    0.94000;
	133	 1	 30.1	 6.02	 0.0	 0.0	 1	    1.04705	   -4.78674	 69.0	 3	    1.06000	    0.94000;
	134	 1	 17.46	 3.34	 0.0	 0.0	 1	    1.03453	   -3.48165	 161.0	 3	    1.06000	    0.94000;
	135	 1	 20.06	 4.01	 0.0	 0.0	 1	    1.04392	   -4.83211	 69.0	 3	    1.06000	    0.94000;
	136	 1	 20.06	 4.01	 0.0	 0.0	 1	    1.03735	   -5.09569	 69.0	 3	    1.06000	    0.94000;
	137	 1	 20.06	 4.01	 0.0	 0.0	 1	    1.04098	   -5.05620	 69.0	 3	    1.06000	    0.94000;
	138	 1	 0.0	 0.0	 0.0	 0.0	 1	    1.04337	   -3.90337	 69.0	 3	    1.06000	    0.94000;
	139	 1	 10.1	 2.01	 0.0	 0.0	 1	    1.03844	   -4.65878	 69.0	 3	    1.06000	    0.94000;
	140	 1	 13.58	 2.68	 0.0	 0.0	 1	    1.04050	   -4.98335	 69.0	 3	    1.06000	    0.94000;
	141	 1	 0.0	 0.0	 0.0	 0.0	 1	    1.00413	   -6.74848	 161.0	 3	    1.06000	    0.94000;
	142	 1	 27.09	 5.35	 0.0	 0.0	 1	    1.01772	  -13.76080	 69.0	 3	    1.06000	    0.94000;
	143	 1	 21.07	 4.01	 0.0	 0.0	 1	    1.00223	  -12.38115	 69.0	 3	    1.06000	    0.94000;
	144	 1	 12.37	 2.01	 0.0	 0.0	 1	    1.02270	   -9.01907	 69.0	 3	    1.06000	    0.94000;
	145	 1	 10.83	 2.21	 0.0	 0.0	 1	    1.02500	   -7.12744	 69.0	 3	    1.06000	    0.94000;
	146	 1	 21.33	 4.01	 0.0	 0.0	 1	    1.00615	  -12.88368	 69.0	 3	    1.06000	    0.94000;
	147	 1	 216.4	 42.8	 0.0	 0.0	 1	    1.00527	  -12.79819	 161.0	 3	    1.06000	    0.94000;
	148	 1	 120.0	 24.0	 0.0	 0.0	 1	    1.00733	  -13.90220	 69.0	 3	    1.06000	    0.94000;
	149	 1	 0.0	 0.0	 0.0	 0.0	 1	    1.00994	   -1.90591	 161.0	 1	    1.06000	    0.94000;
	150	 1	 4.8	 1.6	 0.0	 0.0	 1	    1.00765	   -2.50665	 161.0	 1	    1.06000	    0.94000;
	151	 1	 24.0	 8.0	 0.0	 0.0	 1	    0.99813	   -4.41938	 161.0	 1	    1.06000	    0.94000;
	152	 1	 6.0	 0.0	 0.0	 0.0	 1	    1.02097	   -2.81664	 161.0	 12	    1.06000	    0.94000;
	153	 1	 4.0	 1.6	 0.0	 0.0	 1	    1.00337	   -3.98498	 69.0	 1	    1.06000	    0.94000;
	154	 1	 28.0	 9.6	 0.0	 6.0	 1	    0.96480	   -9.77470	 69.0	 1	    1.06000	    0.94000;
	155	 1	 12.0	 4.0	 0.0	 0.0	 1	    0.97427	   -8.09271	 69.0	 1	    1.06000	    0.94000;
	156	 1	 8.0	 2.4	 0.0	 0.0	 1	    0.96869	   -9.42118	 69.0	 1	    1.06000	    0.94000;
	157	 1	 32.0	 10.4	 0.0	 0.0	 1	    0.97394	   -9.74834	 69.0	 1	    1.06000	    0.94000;
	158	 1	 16.0	 5.6	 0.0	 3.0	 1	    0.96005	  -10.91131	 69.0	 1	    1.06000	    0.94000;
	159	 1	 8.0	 2.4	 0.0	 0.0	 1	    0.95938	  -10.83684	 69.0	 1	    1.06000	    0.94000;
	160	 1	 14.4	 4.8	 0.0	 3.0	 1	    0.96145	  -10.38496	 69.0	 1	    1.06000	    0.94000;
	161	 1	 32.0	 10.4	 0.0	 0.0	 1	    0.99402	   -5.58087	 161.0	 1	    1.06000	    0.94000;
	162	 1	 20.0	 6.4	 0.0	 0.0	 1	    0.99196	   -6.27194	 161.0	 1	    1.06000	    0.94000;
];

%% generator data
%	bus	Pg	Qg	Qmax	Qmin	Vg	mBase	status	Pmax	Pmin	Pc1	Pc2	Qc1min	Qc1max	Qc2min	Qc2max	ramp_agc	ramp_10	ramp_30	ramp_q	apf
mpc.gen = [
	6	 838.592	 326.746	 400.0	 -200.0	 1.03772	 100.0	 1	 1147.0	 0.0	 0.0	 0.0	 0.0	 0.0	 0.0	 0.0	 0.0	 0.0	 0.0	 0.0	 0.0;
	73	 51.472	 152.69	 226.0	 -72.0	 1.00232	 100.0	 1	 451.0	 0.0	 0.0	 0.0	 0.0	 0.0	 0.0	 0.0	 0.0	 0.0	 0.0	 0.0	 0.0;
	76	 1127.0	 -121.929	 564.0	 -170.0	 0.94	 100.0	 1	 1127.0	 0.0	 0.0	 0.0	 0.0	 0.0	 0.0	 0.0	 0.0	 0.0	 0.0	 0.0	 0.0;
	99	 149.768	 8.334	 75.6	 -60.6	 0.9616	 100.0	 1	 366.0	 0.0	 0.0	 0.0	 0.0	 0.0	 0.0	 0.0	 0.0	 0.0	 0.0	 0.0	 0.0;
	101	 87.898	 38.6	 38.6	 -24.4	 0.9894	 100.0	 1	 110.0	 0.0	 0.0	 0.0	 0.0	 0.0	 0.0	 0.0	 0.0	 0.0	 0.0	 0.0	 0.0;
	108	 597.715	 52.316	 560.0	 -560.0	 0.94	 100.0	 1	 1119.0	 0.0	 0.0	 0.0	 0.0	 0.0	 0.0	 0.0	 0.0	 0.0	 0.0	 0.0	 0.0;
	114	 146.325	 33.0	 33.0	 -25.0	 1.01896	 100.0	 1	 308.0	 0.0	 0.0	 0.0	 0.0	 0.0	 0.0	 0.0	 0.0	 0.0	 0.0	 0.0	 0.0;
	118	 182.369	 82.106	 100.0	 -44.0	 1.00374	 100.0	 1	 455.0	 0.0	 0.0	 0.0	 0.0	 0.0	 0.0	 0.0	 0.0	 0.0	 0.0	 0.0	 0.0;
	121	 675.204	 250.0	 250.0	 -120.0	 1.03186	 100.0	 1	 700.0	 0.0	 0.0	 0.0	 0.0	 0.0	 0.0	 0.0	 0.0	 0.0	 0.0	 0.0	 0.0;
	125	 2263.512	 111.274	 1263.0	 -1099.0	 1.03304	 100.0	 1	 2526.0	 0.0	 0.0	 0.0	 0.0	 0.0	 0.0	 0.0	 0.0	 0.0	 0.0	 0.0	 0.0;
	130	 575.857	 49.728	 288.0	 -144.0	 1.00684	 100.0	 1	 1593.0	 0.0	 0.0	 0.0	 0.0	 0.0	 0.0	 0.0	 0.0	 0.0	 0.0	 0.0	 0.0;
	131	 705.687	 78.135	 320.0	 -265.0	 1.03072	 100.0	 1	 1130.0	 0.0	 0.0	 0.0	 0.0	 0.0	 0.0	 0.0	 0.0	 0.0	 0.0	 0.0	 0.0;
];

%% generator cost data
%	2	startup	shutdown	n	c(n-1)	...	c0
mpc.gencost = [
	2	 0.0	 0.0	 3	   0.000000	   0.730114	   0.000000;
	2	 0.0	 0.0	 3	   0.000000	   0.990017	   0.000000;
	2	 0.0	 0.0	 3	   0.000000	   0.593904	   0.000000;
	2	 0.0	 0.0	 3	   0.000000	   0.613505	   0.000000;
	2	 0.0	 0.0	 3	   0.000000	   1.137634	   0.000000;
	2	 0.0	 0.0	 3	   0.000000	   0.180023	   0.000000;
	2	 0.0	 0.0	 3	   0.000000	   0.711971	   0.000000;
	2	 0.0	 0.0	 3	   0.000000	   0.977933	   0.000000;
	2	 0.0	 0.0	 3	   0.000000	   0.806747	   0.000000;
	2	 0.0	 0.0	 3	   0.000000	   0.213340	   0.000000;
	2	 0.0	 0.0	 3	   0.000000	   0.478502	   0.000000;
	2	 0.0	 0.0	 3	   0.000000	   0.360850	   0.000000;
];

%% branch data
%	fbus	tbus	r	x	b	rateA	rateB	rateC	ratio	angle	status	angmin	angmax
mpc.branch = [
	1	 2	 0.0035	 0.0321	 0.5438	 613.0	 613.0	 613.0	 0.0	 0.0	 1	 -15.780547	 15.780547;
	1	 3	 0.0034	 0.0326	 0.7224	 895.0	 895.0	 895.0	 0.0	 0.0	 1	 -15.780547	 15.780547;
	1	 4	 0.0064	 0.0621	 0.987	 470.0	 470.0	 470.0	 0.0	 0.0	 1	 -15.780547	 15.780547;
	1	 5	 0.0011	 0.0119	 0.2012	 663.0	 663.0	 663.0	 0.0	 0.0	 1	 -15.780547	 15.780547;
	1	 6	 0.0	 0.0133	 0.0	 900.0	 2206.0	 2206.0	 1.0519	 0.0	 1	 -15.780547	 15.780547;
	2	 7	 0.0014	 0.0125	 0.2122	 605.0	 605.0	 605.0	 0.0	 0.0	 1	 -15.780547	 15.780547;
	2	 13	 0.0046	 0.0417	 0.7058	 610.0	 610.0	 610.0	 0.0	 0.0	 1	 -15.780547	 15.780547;
	3	 14	 0.2361	 1.0122	 0.0	 29.0	 29.0	 29.0	 0.0	 0.0	 1	 -15.780547	 15.780547;
	3	 50	 0.0389	 0.1699	 0.0	 169.0	 169.0	 169.0	 0.0	 0.0	 1	 -15.780547	 15.780547;
	3	 103	 0.1074	 1.8023	 0.0	 17.0	 17.0	 17.0	 0.0	 0.0	 1	 -15.780547	 15.780547;
	3	 123	 0.2883	 1.6719	 0.0	 18.0	 18.0	 18.0	 0.0	 0.0	 1	 -15.780547	 15.780547;
	3	 124	 0.014	 0.6483	 0.0	 46.0	 46.0	 46.0	 0.0	 0.0	 1	 -15.780547	 15.780547;
	3	 125	 0.0084	 0.1139	 0.0	 257.0	 257.0	 257.0	 0.0	 0.0	 1	 -15.780547	 15.780547;
	4	 112	 0.0059	 0.0568	 0.925	 514.0	 514.0	 514.0	 0.0	 0.0	 1	 -15.780547	 15.780547;
	4	 115	 0.0	 0.0185	 0.0	 500.0	 1586.0	 1586.0	 1.0	 0.0	 1	 -15.780547	 15.780547;
	4	 119	 0.0014	 0.0119	 0.205	 591.0	 591.0	 591.0	 0.0	 0.0	 1	 -15.780547	 15.780547;
	5	 120	 0.0022	 0.0224	 0.3792	 644.0	 644.0	 644.0	 0.0	 0.0	 1	 -15.780547	 15.780547;
	5	 129	 0.0022	 0.0268	 0.4612	 702.0	 702.0	 702.0	 0.0	 0.0	 1	 -15.780547	 15.780547;
	5	 131	 0.0	 0.0127	 0.0	 710.0	 2310.0	 2310.0	 1.0249	 0.0	 1	 -15.780547	 15.780547;
	7	 8	 0.0004	 0.0189	 0.0	 672.0	 1552.0	 1552.0	 0.9751	 0.0	 1	 -15.780547	 15.780547;
	7	 9	 0.0017	 0.0169	 0.2872	 637.0	 637.0	 637.0	 0.0	 0.0	 1	 -15.780547	 15.780547;
	8	 10	 0.4591	 1.0703	 0.0	 26.0	 26.0	 26.0	 0.0	 0.0	 1	 -15.780547	 15.780547;
	8	 12	 0.0106	 0.0574	 0.0	 159.0	 159.0	 159.0	 0.0	 0.0	 1	 -15.780547	 15.780547;
	8	 13	 0.1274	 0.4784	 0.0	 60.0	 60.0	 60.0	 0.0	 0.0	 1	 -15.780547	 15.780547;
	8	 14	 0.0473	 0.3956	 0.0	 74.0	 74.0	 74.0	 0.0	 0.0	 1	 -15.780547	 15.780547;
	8	 15	 0.5035	 1.7433	 0.0	 17.0	 17.0	 17.0	 0.0	 0.0	 1	 -15.780547	 15.780547;
	8	 132	 0.0252	 0.288	 0.0	 102.0	 102.0	 102.0	 0.0	 0.0	 1	 -15.780547	 15.780547;
	9	 75	 0.0013	 0.015	 0.2682	 684.0	 684.0	 684.0	 0.0	 0.0	 1	 -15.780547	 15.780547;
	10	 11	 0.0051	 0.037	 0.0716	 366.0	 366.0	 366.0	 0.0	 0.0	 1	 -15.780547	 15.780547;
	10	 13	 0.1299	 0.622	 0.0	 47.0	 47.0	 47.0	 0.0	 0.0	 1	 -15.780547	 15.780547;
	10	 15	 0.1275	 0.7033	 0.0	 42.0	 42.0	 42.0	 0.0	 0.0	 1	 -15.780547	 15.780547;
	10	 60	 0.2525	 1.2242	 0.0	 24.0	 24.0	 24.0	 0.0	 0.0	 1	 -15.780547	 15.780547;
	11	 15	 0.0285	 0.1793	 0.3484	 162.0	 162.0	 162.0	 0.0	 0.0	 1	 -15.780547	 15.780547;
	11	 46	 0.0142	 0.1225	 0.1876	 238.0	 238.0	 238.0	 0.0	 0.0	 1	 -15.780547	 15.780547;
	11	 58	 0.017	 0.107	 0.2074	 271.0	 271.0	 271.0	 0.0	 0.0	 1	 -15.780547	 15.780547;
	11	 59	 0.0071	 0.0471	 0.0852	 350.0	 350.0	 350.0	 0.0	 0.0	 1	 -15.780547	 15.780547;
	12	 2	 0.0008	 0.0377	 0.0	 336.0	 778.0	 778.0	 1.0252	 0.0	 1	 -15.780547	 15.780547;
	12	 13	 0.1038	 0.3137	 0.0	 89.0	 89.0	 89.0	 0.0	 0.0	 1	 -15.780547	 15.780547;
	12	 14	 0.1598	 0.6415	 0.0	 45.0	 45.0	 45.0	 0.0	 0.0	 1	 -15.780547	 15.780547;
	12	 132	 0.4486	 1.5773	 0.0	 18.0	 18.0	 18.0	 0.0	 0.0	 1	 -15.780547	 15.780547;
	13	 15	 0.044	 0.3227	 0.0	 91.0	 91.0	 91.0	 0.0	 0.0	 1	 -15.780547	 15.780547;
	13	 62	 0.0098	 0.1221	 0.0	 240.0	 240.0	 240.0	 0.0	 0.0	 1	 -15.780547	 15.780547;
	14	 72	 0.0107	 0.0828	 0.0	 264.0	 264.0	 264.0	 0.0	 0.0	 1	 -15.780547	 15.780547;
	14	 113	 0.0063	 0.0382	 0.0	 235.0	 235.0	 235.0	 0.0	 0.0	 1	 -15.780547	 15.780547;
	14	 132	 0.0057	 0.0374	 0.0	 244.0	 244.0	 244.0	 0.0	 0.0	 1	 -15.780547	 15.780547;
	15	 58	 0.0115	 0.0732	 0.142	 344.0	 344.0	 344.0	 0.0	 0.0	 1	 -15.780547	 15.780547;
	15	 60	 0.3907	 1.6753	 0.0	 18.0	 18.0	 18.0	 0.0	 0.0	 1	 -15.780547	 15.780547;
	15	 62	 0.0084	 0.0588	 0.0	 359.0	 359.0	 359.0	 0.0	 0.0	 1	 -15.780547	 15.780547;
	15	 63	 0.1704	 1.4555	 0.0	 21.0	 21.0	 21.0	 0.0	 0.0	 1	 -15.780547	 15.780547;
	16	 17	 0.6017	 1.4373	 0.0	 19.0	 19.0	 19.0	 0.0	 0.0	 1	 -15.780547	 15.780547;
	16	 18	 0.0297	 0.107	 0.0546	 184.0	 184.0	 184.0	 0.0	 0.0	 1	 -15.780547	 15.780547;
	16	 27	 0.1574	 0.8871	 0.0	 33.0	 33.0	 33.0	 0.0	 0.0	 1	 -15.780547	 15.780547;
	16	 126	 0.1053	 0.5132	 0.0	 56.0	 56.0	 56.0	 0.0	 0.0	 1	 -15.780547	 15.780547;
	16	 127	 0.0958	 0.5276	 0.0	 55.0	 55.0	 55.0	 0.0	 0.0	 1	 -15.780547	 15.780547;
	17	 18	 0.0213	 0.1013	 0.0642	 209.0	 209.0	 209.0	 0.0	 0.0	 1	 -15.780547	 15.780547;
	17	 19	 0.2314	 0.7678	 0.0	 37.0	 37.0	 37.0	 0.0	 0.0	 1	 -15.780547	 15.780547;
	17	 21	 0.0471	 0.2665	 0.0	 109.0	 109.0	 109.0	 0.0	 0.0	 1	 -15.780547	 15.780547;
	17	 127	 0.0287	 0.2637	 0.0	 111.0	 111.0	 111.0	 0.0	 0.0	 1	 -15.780547	 15.780547;
	18	 30	 0.0207	 0.1088	 0.052	 220.0	 220.0	 220.0	 0.0	 0.0	 1	 -15.780547	 15.780547;
	18	 32	 0.0234	 0.122	 0.0582	 219.0	 219.0	 219.0	 0.0	 0.0	 1	 -15.780547	 15.780547;
	18	 37	 0.0	 0.0456	 0.0	 225.0	 644.0	 644.0	 1.1193	 0.0	 1	 -15.780547	 15.780547;
	19	 21	 0.3867	 1.9005	 0.0	 16.0	 16.0	 16.0	 0.0	 0.0	 1	 -15.780547	 15.780547;
	19	 38	 0.0239	 0.125	 0.0596	 219.0	 219.0	 219.0	 0.0	 0.0	 1	 -15.780547	 15.780547;
	19	 43	 0.0603	 0.2572	 0.0	 112.0	 112.0	 112.0	 0.0	 0.0	 1	 -15.780547	 15.780547;
	19	 127	 0.1074	 0.6809	 0.0	 43.0	 43.0	 43.0	 0.0	 0.0	 1	 -15.780547	 15.780547;
	20	 53	 0.0	 0.114	 0.0	 75.0	 258.0	 258.0	 1.0	 0.0	 1	 -15.780547	 15.780547;
	20	 157	 0.0113	 0.0279	 0.0004	 44.0	 66.0	 66.0	 0.0	 0.0	 1	 -15.780547	 15.780547;
	21	 22	 0.0312	 0.1629	 0.0778	 177.0	 177.0	 177.0	 0.0	 0.0	 1	 -15.780547	 15.780547;
	21	 127	 0.0105	 0.6414	 0.0	 46.0	 46.0	 46.0	 0.0	 0.0	 1	 -15.780547	 15.780547;
	22	 38	 0.014	 0.054	 0.025	 190.0	 190.0	 190.0	 0.0	 0.0	 1	 -15.780547	 15.780547;
	22	 39	 0.0	 0.0493	 0.0	 225.0	 595.0	 595.0	 1.1081	 0.0	 1	 -15.780547	 15.780547;
	22	 40	 0.0188	 0.0717	 0.0328	 189.0	 189.0	 189.0	 0.0	 0.0	 1	 -15.780547	 15.780547;
	22	 41	 0.0172	 0.085	 0.0404	 213.0	 213.0	 213.0	 0.0	 0.0	 1	 -15.780547	 15.780547;
	23	 24	 0.0174	 0.0511	 0.023	 167.0	 167.0	 167.0	 0.0	 0.0	 1	 -15.780547	 15.780547;
	23	 60	 0.066	 0.3093	 0.0	 93.0	 93.0	 93.0	 0.0	 0.0	 1	 -15.780547	 15.780547;
	24	 25	 0.0	 0.034	 0.0	 225.0	 863.0	 863.0	 1.0217	 0.0	 1	 -15.780547	 15.780547;
	24	 28	 0.0249	 0.0725	 0.0202	 166.0	 166.0	 166.0	 0.0	 0.0	 1	 -15.780547	 15.780547;
	24	 45	 0.0137	 0.0725	 0.034	 220.0	 220.0	 220.0	 0.0	 0.0	 1	 -15.780547	 15.780547;
	25	 26	 0.0059	 0.0583	 0.9302	 501.0	 501.0	 501.0	 0.0	 0.0	 1	 -15.780547	 15.780547;
	25	 27	 0.0044	 0.041	 0.8384	 618.0	 618.0	 618.0	 0.0	 0.0	 1	 -15.780547	 15.780547;
	26	 74	 0.0063	 0.0607	 0.93	 481.0	 481.0	 481.0	 0.0	 0.0	 1	 -15.780547	 15.780547;
	26	 75	 0.003	 0.0322	 0.5038	 661.0	 661.0	 661.0	 0.0	 0.0	 1	 -15.780547	 15.780547;
	26	 76	 0.0	 0.0082	 0.0	 1250.0	 3578.0	 3578.0	 1.04	 0.0	 1	 -15.780547	 15.780547;
	27	 31	 0.0101	 0.1273	 0.0	 230.0	 230.0	 230.0	 0.0	 0.0	 1	 -15.780547	 15.780547;
	27	 62	 0.0173	 0.581	 0.0	 51.0	 51.0	 51.0	 0.0	 0.0	 1	 -15.780547	 15.780547;
	27	 65	 0.0105	 0.2764	 0.0	 107.0	 107.0	 107.0	 0.0	 0.0	 1	 -15.780547	 15.780547;
	27	 125	 0.035	 1.6845	 0.0	 18.0	 18.0	 18.0	 0.0	 0.0	 1	 -15.780547	 15.780547;
	27	 126	 0.0022	 0.0225	 0.0	 646.0	 646.0	 646.0	 0.0	 0.0	 1	 -15.780547	 15.780547;
	27	 127	 0.1506	 1.4355	 0.0	 21.0	 21.0	 21.0	 0.0	 0.0	 1	 -15.780547	 15.780547;
	28	 29	 0.024	 0.0965	 0.0444	 193.0	 193.0	 193.0	 0.0	 0.0	 1	 -15.780547	 15.780547;
	29	 30	 0.038	 0.15	 0.0696	 177.0	 190.0	 190.0	 0.0	 0.0	 1	 -15.780547	 15.780547;
	29	 31	 0.0206	 0.0833	 0.0384	 194.0	 194.0	 194.0	 0.0	 0.0	 1	 -15.780547	 15.780547;
	30	 32	 0.0249	 0.1005	 0.0458	 194.0	 194.0	 194.0	 0.0	 0.0	 1	 -15.780547	 15.780547;
	32	 33	 0.0114	 0.0448	 0.0208	 191.0	 191.0	 191.0	 0.0	 0.0	 1	 -15.780547	 15.780547;
	33	 34	 0.028	 0.114	 0.052	 180.0	 195.0	 195.0	 0.0	 0.0	 1	 -15.780547	 15.780547;
	33	 35	 0.0216	 0.107	 0.051	 214.0	 214.0	 214.0	 0.0	 0.0	 1	 -15.780547	 15.780547;
	33	 36	 0.0102	 0.0536	 0.0254	 220.0	 220.0	 220.0	 0.0	 0.0	 1	 -15.780547	 15.780547;
	34	 40	 0.0397	 0.1517	 0.069	 188.0	 188.0	 188.0	 0.0	 0.0	 1	 -15.780547	 15.780547;
	34	 77	 0.0235	 0.0896	 0.0408	 189.0	 189.0	 189.0	 0.0	 0.0	 1	 -15.780547	 15.780547;
	35	 40	 0.0271	 0.1341	 0.0638	 179.0	 213.0	 213.0	 0.0	 0.0	 1	 -15.780547	 15.780547;
	36	 67	 0.0176	 0.0924	 0.044	 220.0	 220.0	 220.0	 0.0	 0.0	 1	 -15.780547	 15.780547;
	37	 39	 0.0039	 0.0379	 0.67	 630.0	 630.0	 630.0	 0.0	 0.0	 1	 -15.780547	 15.780547;
	37	 126	 0.004	 0.0381	 0.67	 624.0	 624.0	 624.0	 0.0	 0.0	 1	 -15.780547	 15.780547;
	37	 127	 0.004	 0.0403	 0.6832	 641.0	 641.0	 641.0	 0.0	 0.0	 1	 -15.780547	 15.780547;
	39	 42	 0.002	 0.0186	 0.32	 617.0	 617.0	 617.0	 0.0	 0.0	 1	 -15.780547	 15.780547;
	40	 81	 0.03	 0.345	 0.0038	 81.0	 85.0	 85.0	 0.0	 0.0	 1	 -15.780547	 15.780547;
	40	 82	 0.004	 0.019	 0.0108	 209.0	 209.0	 209.0	 0.0	 0.0	 1	 -15.780547	 15.780547;
	41	 81	 0.037	 0.372	 0.0058	 79.0	 79.0	 79.0	 0.0	 0.0	 1	 -15.780547	 15.780547;
	41	 83	 0.0052	 0.0256	 0.0124	 213.0	 213.0	 213.0	 0.0	 0.0	 1	 -15.780547	 15.780547;
	41	 84	 0.0057	 0.058	 0.0292	 301.0	 301.0	 301.0	 0.0	 0.0	 1	 -15.780547	 15.780547;
	42	 109	 0.0019	 0.0196	 0.333	 648.0	 648.0	 648.0	 0.0	 0.0	 1	 -15.780547	 15.780547;
	43	 44	 0.0188	 0.0751	 0.0348	 193.0	 193.0	 193.0	 0.0	 0.0	 1	 -15.780547	 15.780547;
	43	 103	 0.0324	 0.1702	 0.0	 170.0	 170.0	 170.0	 0.0	 0.0	 1	 -15.780547	 15.780547;
	43	 124	 0.0293	 0.1766	 0.0	 164.0	 164.0	 164.0	 0.0	 0.0	 1	 -15.780547	 15.780547;
	43	 125	 0.1449	 0.6509	 0.0	 44.0	 44.0	 44.0	 0.0	 0.0	 1	 -15.780547	 15.780547;
	44	 102	 0.013	 0.05	 0.0236	 180.0	 189.0	 189.0	 0.0	 0.0	 1	 -15.780547	 15.780547;
	44	 103	 0.0127	 0.051	 0.0244	 180.0	 193.0	 193.0	 0.0	 0.0	 1	 -15.780547	 15.780547;
	45	 54	 0.0108	 0.057	 0.0272	 220.0	 220.0	 220.0	 0.0	 0.0	 1	 -15.780547	 15.780547;
	46	 47	 0.031	 0.1378	 0.0622	 177.0	 203.0	 203.0	 0.0	 0.0	 1	 -15.780547	 15.780547;
	47	 48	 0.0251	 0.1114	 0.0502	 177.0	 203.0	 203.0	 0.0	 0.0	 1	 -15.780547	 15.780547;
	47	 49	 0.003	 0.012	 0.0054	 193.0	 193.0	 193.0	 0.0	 0.0	 1	 -15.780547	 15.780547;
	48	 50	 0.0336	 0.166	 0.078	 174.0	 174.0	 174.0	 0.0	 0.0	 1	 -15.780547	 15.780547;
	48	 51	 0.042	 0.13	 0.057	 171.0	 171.0	 171.0	 0.0	 0.0	 1	 -15.780547	 15.780547;
	48	 52	 0.054	 0.168	 0.074	 167.0	 167.0	 167.0	 0.0	 0.0	 1	 -15.780547	 15.780547;
	49	 87	 0.014	 0.068	 0.0266	 423.0	 423.0	 423.0	 0.0	 0.0	 1	 -15.780547	 15.780547;
	50	 51	 0.03	 0.09	 0.041	 168.0	 168.0	 168.0	 0.0	 0.0	 1	 -15.780547	 15.780547;
	50	 123	 0.4071	 1.8543	 0.0	 16.0	 16.0	 16.0	 0.0	 0.0	 1	 -15.780547	 15.780547;
	50	 125	 0.1337	 0.6031	 0.0	 48.0	 48.0	 48.0	 0.0	 0.0	 1	 -15.780547	 15.780547;
	51	 141	 0.0323	 0.1	 0.0442	 171.0	 171.0	 171.0	 0.0	 0.0	 1	 -15.780547	 15.780547;
	52	 79	 0.0623	 0.2126	 0.094	 133.0	 133.0	 133.0	 0.0	 0.0	 1	 -15.780547	 15.780547;
	52	 106	 0.0231	 0.0717	 0.0314	 171.0	 171.0	 171.0	 0.0	 0.0	 1	 -15.780547	 15.780547;
	52	 116	 0.006	 0.0487	 0.0256	 270.0	 270.0	 270.0	 0.0	 0.0	 1	 -15.780547	 15.780547;
	52	 117	 0.0117	 0.0493	 0.023	 198.0	 198.0	 198.0	 0.0	 0.0	 1	 -15.780547	 15.780547;
	52	 118	 0.0	 0.052	 0.0	 200.0	 565.0	 565.0	 1.0429	 0.0	 1	 -15.780547	 15.780547;
	53	 11	 0.0005	 0.02	 0.0	 375.0	 1467.0	 1467.0	 1.0	 0.0	 1	 -15.780547	 15.780547;
	53	 54	 0.0275	 0.1961	 0.0956	 149.0	 149.0	 149.0	 0.0	 0.0	 1	 -15.780547	 15.780547;
	53	 55	 0.0005	 0.0026	 0.0022	 219.0	 219.0	 219.0	 0.0	 0.0	 1	 -15.780547	 15.780547;