%%%%%%%%%%%%%%%%%%%%%%%%%%%%%%%%%%%%%%%%%%%%%%%%%%%%%%%%%%%%%%%%%%%%%%%%%%%
%%%%                                                                  %%%%%
%%%%    IEEE PES Power Grid Library - Optimal Power Flow - v17.07     %%%%%
%%%%          (https://github.com/power-grid-lib/pglib-opf)           %%%%%
%%%%             Benchmark Group - Small Angle Difference             %%%%%
%%%%                         27 - June - 2017                         %%%%%
%%%%                                                                  %%%%%
%%%%%%%%%%%%%%%%%%%%%%%%%%%%%%%%%%%%%%%%%%%%%%%%%%%%%%%%%%%%%%%%%%%%%%%%%%%
function mpc = pglib_opf_case2383wp_mp__sad
mpc.version = '2';
mpc.baseMVA = 100.0;

%% area data
%	area	refbus
mpc.areas = [
	1	 18;
];

%% bus data
%	bus_i	type	Pd	Qd	Gs	Bs	area	Vm	Va	baseKV	zone	Vmax	Vmin
mpc.bus = [
	1	 1	 0.0	 0.0	 0.0	 0.0	 1	    1.09168	    1.67521	 220.0	 1	    1.11000	    0.95000;
	2	 1	 0.0	 0.0	 0.0	 0.0	 1	    1.08028	    2.26833	 220.0	 1	    1.11000	    0.95000;
	3	 1	 0.0	 0.0	 0.0	 0.0	 1	    1.05587	  -15.68793	 220.0	 1	    1.11000	    0.95000;
	4	 1	 0.0	 0.0	 0.0	 0.0	 1	    1.07400	   -3.20022	 220.0	 1	    1.11000	    0.95000;
	5	 1	 0.0	 0.0	 0.0	 0.0	 1	    1.06895	  -10.19209	 220.0	 1	    1.11000	    0.95000;
	6	 1	 0.0	 0.0	 0.0	 0.0	 1	    1.03374	   -5.55917	 400.0	 1	    1.05000	    0.95000;
	7	 1	 0.0	 0.0	 0.0	 0.0	 1	    1.06329	  -11.60410	 220.0	 1	    1.11000	    0.95000;
	8	 1	 0.0	 0.0	 0.0	 0.0	 1	    1.03933	   -4.20284	 400.0	 1	    1.05000	    0.95000;
	9	 1	 0.0	 0.0	 0.0	 0.0	 1	    1.04261	   -8.23052	 400.0	 1	    1.05000	    0.95000;
	10	 2	 12.23	 9.0	 0.0	 0.0	 1	    1.08267	  -10.06066	 220.0	 1	    1.11000	    0.95000;
	11	 1	 0.0	 0.0	 0.0	 0.0	 1	    1.07940	   -2.13401	 220.0	 1	    1.11000	    0.95000;
	12	 1	 0.0	 0.0	 0.0	 0.0	 1	    1.06749	  -12.91567	 220.0	 1	    1.11000	    0.95000;
	13	 1	 0.0	 0.0	 0.0	 0.0	 1	    1.06874	  -11.40292	 220.0	 1	    1.11000	    0.95000;
	14	 1	 0.0	 0.0	 0.0	 0.0	 1	    1.06617	   -0.80905	 220.0	 1	    1.11000	    0.95000;
	15	 1	 0.0	 0.0	 0.0	 0.0	 1	    1.02290	   -8.16031	 400.0	 1	    1.05000	    0.95000;
	16	 2	 54.88	 100.0	 0.0	 0.0	 1	    1.09433	    2.14438	 220.0	 1	    1.11000	    0.95000;
	17	 2	 77.0	 150.0	 0.0	 0.0	 1	    1.08554	    3.04657	 220.0	 1	    1.11000	    0.95000;
	18	 3	 153.0	 350.0	 0.0	 0.0	 1	    1.03155	    0.00000	 400.0	 1	    1.05000	    0.95000;
	19	 1	 0.0	 0.0	 0.0	 0.0	 1	    1.06717	  -12.34102	 220.0	 1	    1.11000	    0.95000;
	20	 1	 0.0	 0.0	 0.0	 0.0	 1	    1.03522	   -0.19531	 400.0	 1	    1.05000	    0.95000;
	21	 1	 0.0	 0.0	 0.0	 0.0	 1	    1.06279	  -12.04162	 220.0	 1	    1.11000	    0.95000;
	22	 1	 0.0	 0.0	 0.0	 0.0	 1	    1.08374	   -5.48793	 220.0	 1	    1.11000	    0.95000;
	23	 1	 0.0	 0.0	 0.0	 0.0	 1	    1.07376	   -5.03108	 220.0	 2	    1.11000	    0.95000;
	24	 1	 0.0	 0.0	 0.0	 0.0	 1	    1.05917	   -0.75630	 220.0	 2	    1.11000	    0.95000;
	25	 1	 0.0	 0.0	 0.0	 0.0	 1	    1.06357	    1.14567	 220.0	 2	    1.11000	    0.95000;
	26	 1	 0.0	 0.0	 0.0	 0.0	 1	    1.06252	   -7.86450	 220.0	 2	    1.11000	    0.95000;
	27	 1	 0.0	 0.0	 0.0	 0.0	 1	    1.06617	   -1.70595	 220.0	 2	    1.11000	    0.95000;
	28	 1	 0.0	 0.0	 0.0	 0.0	 1	    1.06613	   -1.70069	 220.0	 2	    1.11000	    0.95000;
	29	 2	 25.98	 60.0	 0.0	 0.0	 1	    1.10998	   -3.20022	 220.0	 2	    1.11000	    0.95000;
	30	 2	 25.98	 60.0	 0.0	 0.0	 1	    1.11000	   -3.19285	 220.0	 2	    1.11000	    0.95000;
	31	 2	 20.98	 50.0	 0.0	 0.0	 1	    1.03268	   -0.85068	 400.0	 2	    1.05000	    0.95000;
	32	 1	 0.0	 0.0	 0.0	 0.0	 1	    1.03270	   -0.87705	 400.0	 2	    1.05000	    0.95000;
	33	 1	 0.0	 0.0	 0.0	 0.0	 1	    1.06104	   -2.39734	 220.0	 2	    1.11000	    0.95000;
	34	 1	 0.0	 0.0	 0.0	 0.0	 1	    1.04375	   -1.32805	 400.0	 2	    1.05000	    0.95000;
	35	 1	 0.0	 0.0	 0.0	 0.0	 1	    1.04377	   -1.33496	 400.0	 2	    1.05000	    0.95000;
	36	 1	 0.0	 0.0	 0.0	 0.0	 1	    1.01602	   -3.73364	 400.0	 2	    1.05000	    0.95000;
	37	 1	 0.0	 0.0	 0.0	 0.0	 1	    1.07246	   -5.86890	 220.0	 2	    1.11000	    0.95000;
	38	 1	 0.0	 0.0	 0.0	 0.0	 1	    1.07246	   -5.86803	 220.0	 2	    1.11000	    0.95000;
	39	 1	 0.0	 0.0	 0.0	 0.0	 1	    1.02199	    0.24893	 400.0	 2	    1.05000	    0.95000;
	40	 1	 0.0	 0.0	 0.0	 0.0	 1	    1.02194	    0.25825	 400.0	 2	    1.05000	    0.95000;
	41	 2	 11.99	 30.0	 0.0	 0.0	 1	    1.06644	    3.40468	 220.0	 2	    1.11000	    0.95000;
	42	 2	 11.99	 30.0	 0.0	 0.0	 1	    1.06643	    3.40602	 220.0	 2	    1.11000	    0.95000;
	43	 2	 23.98	 60.0	 0.0	 0.0	 1	    1.02531	    2.46678	 400.0	 2	    1.05000	    0.95000;
	44	 2	 23.98	 60.0	 0.0	 0.0	 1	    1.02535	    2.45137	 400.0	 2	    1.05000	    0.95000;
	45	 2	 159.84	 75.0	 0.0	 0.0	 1	    1.09174	   -4.45056	 220.0	 2	    1.11000	    0.95000;
	46	 1	 0.0	 0.0	 0.0	 0.0	 1	    1.09175	   -4.44860	 220.0	 2	    1.11000	    0.95000;
	47	 1	 0.0	 0.0	 0.0	 0.0	 1	    1.06086	   -1.72902	 220.0	 2	    1.11000	    0.95000;
	48	 1	 0.0	 0.0	 0.0	 0.0	 1	    1.08839	   -4.24441	 220.0	 2	    1.11000	    0.95000;
	49	 1	 0.0	 0.0	 0.0	 0.0	 1	    1.08841	   -4.24632	 220.0	 2	    1.11000	    0.95000;
	50	 1	 0.0	 0.0	 0.0	 0.0	 1	    1.03061	    0.30670	 400.0	 2	    1.05000	    0.95000;
	51	 1	 0.0	 0.0	 0.0	 0.0	 1	    1.03070	    0.29139	 400.0	 2	    1.05000	    0.95000;
	52	 1	 0.0	 0.0	 0.0	 0.0	 1	    1.06383	   -1.46506	 220.0	 2	    1.11000	    0.95000;
	53	 1	 0.0	 0.0	 0.0	 0.0	 1	    1.06519	   -1.32458	 220.0	 2	    1.11000	    0.95000;
	54	 1	 0.0	 0.0	 0.0	 0.0	 1	    1.06365	    1.21346	 220.0	 2	    1.11000	    0.95000;
	55	 1	 0.0	 0.0	 0.0	 0.0	 1	    1.07637	   -4.89281	 220.0	 2	    1.11000	    0.95000;
	56	 1	 0.0	 0.0	 0.0	 0.0	 1	    1.06802	   -0.07148	 220.0	 3	    1.11000	    0.95000;
	57	 1	 22.98	 10.96	 0.0	 0.0	 1	    1.07607	    2.20856	 220.0	 3	    1.11000	    0.95000;
	58	 1	 21.98	 5.79	 0.0	 0.0	 1	    1.07631	    2.21123	 220.0	 3	    1.11000	    0.95000;
	59	 1	 0.0	 0.0	 0.0	 0.0	 1	    1.08522	    6.92210	 220.0	 3	    1.11000	    0.95000;
	60	 1	 0.0	 0.0	 0.0	 0.0	 1	    1.07958	    2.15425	 220.0	 3	    1.11000	    0.95000;
	61	 1	 0.0	 0.0	 0.0	 0.0	 1	    1.09730	    8.41908	 220.0	 3	    1.11000	    0.95000;
	62	 1	 0.0	 0.0	 0.0	 0.0	 1	    1.09729	    8.42069	 220.0	 3	    1.11000	    0.95000;
	63	 2	 37.37	 52.69	 0.0	 0.0	 1	    1.08732	    7.35966	 220.0	 3	    1.11000	    0.95000;
	64	 2	 35.37	 55.32	 0.0	 0.0	 1	    1.08588	    7.19511	 220.0	 3	    1.11000	    0.95000;
	65	 1	 13.39	 2.02	 0.0	 0.0	 1	    1.08018	    5.19544	 220.0	 3	    1.11000	    0.95000;
	66	 1	 0.0	 0.0	 0.0	 0.0	 1	    1.10021	    0.45018	 220.0	 3	    1.11000	    0.95000;
	67	 2	 60.4	 92.1	 0.0	 0.0	 1	    1.05000	    1.84737	 400.0	 3	    1.05000	    0.95000;
	68	 1	 0.0	 0.0	 0.0	 0.0	 1	    1.09336	    1.10498	 220.0	 3	    1.11000	    0.95000;
	69	 1	 0.0	 0.0	 0.0	 0.0	 1	    1.08319	    5.07927	 220.0	 3	    1.11000	    0.95000;
	70	 1	 0.0	 0.0	 0.0	 0.0	 1	    1.07120	    0.76524	 220.0	 3	    1.11000	    0.95000;
	71	 1	 0.0	 0.0	 0.0	 0.0	 1	    1.07260	    4.03357	 220.0	 3	    1.11000	    0.95000;
	72	 1	 0.0	 0.0	 0.0	 0.0	 1	    1.07260	    4.03357	 220.0	 3	    1.11000	    0.95000;
	73	 1	 0.0	 0.0	 0.0	 0.0	 1	    1.07462	    1.39034	 220.0	 3	    1.11000	    0.95000;
	74	 1	 0.0	 0.0	 0.0	 0.0	 1	    1.07285	    0.59550	 220.0	 3	    1.11000	    0.95000;
	75	 1	 0.0	 0.0	 0.0	 0.0	 1	    1.02086	   -0.40515	 400.0	 3	    1.05000	    0.95000;
	76	 1	 0.0	 0.0	 0.0	 0.0	 1	    1.02080	   -0.40747	 400.0	 3	    1.05000	    0.95000;
	77	 1	 0.0	 0.0	 0.0	 0.0	 1	    1.07255	    3.38000	 220.0	 3	    1.11000	    0.95000;
	78	 1	 0.0	 0.0	 0.0	 0.0	 1	    1.07622	    1.60673	 220.0	 3	    1.11000	    0.95000;
	79	 1	 0.0	 0.0	 0.0	 0.0	 1	    1.07822	    5.06615	 220.0	 3	    1.11000	    0.95000;
	80	 1	 0.0	 0.0	 0.0	 0.0	 1	    1.07672	    2.26292	 220.0	 3	    1.11000	    0.95000;
	81	 1	 0.0	 0.0	 0.0	 0.0	 1	    1.07673	    2.26060	 220.0	 3	    1.11000	    0.95000;
	82	 1	 0.0	 0.0	 0.0	 0.0	 1	    1.09075	    7.32331	 220.0	 3	    1.11000	    0.95000;
	83	 2	 15.99	 22.97	 0.0	 0.0	 1	    1.08393	    5.01162	 220.0	 3	    1.11000	    0.95000;
	84	 2	 15.79	 22.27	 0.0	 0.0	 1	    1.08404	    5.01033	 220.0	 3	    1.11000	    0.95000;
	85	 2	 9.99	 17.01	 0.0	 0.0	 1	    1.07640	    3.37599	 220.0	 3	    1.11000	    0.95000;
	86	 2	 9.99	 16.66	 0.0	 0.0	 1	    1.07632	    3.37728	 220.0	 3	    1.11000	    0.95000;
	87	 1	 11.09	 16.22	 0.0	 0.0	 1	    1.07176	    3.00329	 220.0	 3	    1.11000	    0.95000;
	88	 1	 0.0	 0.0	 0.0	 0.0	 1	    1.07177	    3.00652	 220.0	 3	    1.11000	    0.95000;
	89	 1	 0.0	 0.0	 0.0	 0.0	 1	    1.08204	    5.84368	 220.0	 3	    1.11000	    0.95000;
	90	 1	 0.0	 0.0	 0.0	 0.0	 1	    1.07855	    4.16611	 220.0	 3	    1.11000	    0.95000;
	91	 1	 0.0	 0.0	 0.0	 0.0	 1	    1.08048	    5.65252	 220.0	 3	    1.11000	    0.95000;
	92	 1	 0.0	 0.0	 0.0	 0.0	 1	    0.99680	   -1.05091	 400.0	 3	    1.05000	    0.95000;
	93	 2	 9.99	 16.39	 0.0	 0.0	 1	    1.08175	    6.35601	 220.0	 3	    1.11000	    0.95000;
	94	 1	 0.0	 0.0	 0.0	 0.0	 1	    1.08177	    6.35352	 220.0	 3	    1.11000	    0.95000;
	95	 2	 6.89	 8.15	 0.0	 0.0	 1	    1.09060	    6.71764	 220.0	 3	    1.11000	    0.95000;
	96	 1	 0.0	 0.0	 0.0	 0.0	 1	    1.09061	    6.71476	 220.0	 3	    1.11000	    0.95000;
	97	 2	 8.69	 5.26	 0.0	 0.0	 1	    1.08029	    1.98306	 220.0	 3	    1.11000	    0.95000;
	98	 1	 0.0	 0.0	 0.0	 0.0	 1	    1.02068	    0.71623	 400.0	 3	    1.05000	    0.95000;
	99	 1	 0.0	 0.0	 0.0	 0.0	 1	    1.02075	    0.72172	 400.0	 3	    1.05000	    0.95000;
	100	 1	 0.0	 0.0	 0.0	 0.0	 1	    1.01581	   -0.46171	 400.0	 3	    1.05000	    0.95000;
	101	 1	 0.0	 0.0	 0.0	 0.0	 1	    1.01594	   -0.45803	 400.0	 3	    1.05000	    0.95000;
	102	 1	 0.0	 0.0	 0.0	 0.0	 1	    1.08479	    5.99470	 220.0	 3	    1.11000	    0.95000;
	103	 2	 18.09	 23.76	 0.0	 0.0	 1	    1.07773	    3.88148	 220.0	 3	    1.11000	    0.95000;
	104	 2	 33.68	 46.11	 0.0	 0.0	 1	    1.07791	    3.88922	 220.0	 3	    1.11000	    0.95000;
	105	 2	 33.78	 62.95	 0.0	 0.0	 1	    0.97847	   -0.85156	 400.0	 3	    1.05000	    0.95000;
	106	 1	 0.0	 0.0	 0.0	 0.0	 1	    0.97862	   -0.85587	 400.0	 3	    1.05000	    0.95000;
	107	 1	 0.0	 0.0	 0.0	 0.0	 1	    1.06973	    0.49859	 220.0	 3	    1.11000	    0.95000;
	108	 1	 0.0	 0.0	 0.0	 0.0	 1	    1.07159	    0.71400	 220.0	 3	    1.11000	    0.95000;
	109	 2	 1.0	 22.36	 0.0	 0.0	 1	    1.10072	    9.14002	 220.0	 3	    1.11000	    0.95000;
	110	 2	 1.0	 22.18	 0.0	 0.0	 1	    1.10071	    9.14170	 220.0	 3	    1.11000	    0.95000;
	111	 2	 26.49	 18.0	 0.0	 0.0	 1	    1.11000	   -5.97501	 220.0	 4	    1.11000	    0.95000;
	112	 1	 0.0	 0.0	 0.0	 0.0	 1	    1.10990	   -5.97414	 220.0	 4	    1.11000	    0.95000;
	113	 1	 0.0	 0.0	 0.0	 0.0	 1	    1.05989	   -8.24657	 220.0	 4	    1.11000	    0.95000;
	114	 1	 0.0	 0.0	 0.0	 0.0	 1	    1.07262	   -6.55734	 220.0	 4	    1.11000	    0.95000;
	115	 1	 0.0	 0.0	 0.0	 0.0	 1	    0.98538	   -5.79829	 400.0	 4	    1.05000	    0.95000;
	116	 1	 0.0	 0.0	 0.0	 0.0	 1	    0.98542	   -5.79705	 400.0	 4	    1.05000	    0.95000;
	117	 1	 0.0	 0.0	 0.0	 0.0	 1	    1.07929	  -12.33997	 220.0	 4	    1.11000	    0.95000;
	118	 1	 0.0	 0.0	 0.0	 0.0	 1	    1.06333	   -6.26659	 220.0	 4	    1.11000	    0.95000;
	119	 1	 0.0	 0.0	 0.0	 0.0	 1	    1.06333	   -6.26659	 220.0	 4	    1.11000	    0.95000;
	120	 1	 0.0	 0.0	 0.0	 0.0	 1	    1.04587	   -9.77588	 220.0	 4	    1.11000	    0.95000;
	121	 1	 0.0	 0.0	 0.0	 0.0	 1	    1.06486	  -10.12147	 220.0	 4	    1.11000	    0.95000;
	122	 1	 0.0	 0.0	 0.0	 0.0	 1	    1.06486	  -10.12147	 220.0	 4	    1.11000	    0.95000;
	123	 2	 5.5	 7.0	 0.0	 0.0	 1	    1.10994	   -6.84545	 220.0	 4	    1.11000	    0.95000;
	124	 2	 8.79	 17.0	 0.0	 0.0	 1	    1.11000	   -6.84426	 220.0	 4	    1.11000	    0.95000;
	125	 2	 35.7	 18.3	 0.0	 0.0	 1	    1.10158	   -2.71346	 220.0	 4	    1.11000	    0.95000;
	126	 1	 25.28	 15.9	 0.0	 0.0	 1	    1.10145	   -2.72406	 220.0	 4	    1.11000	    0.95000;
	127	 2	 25.71	 15.3	 0.0	 0.0	 1	    1.03368	   -2.64037	 400.0	 4	    1.05000	    0.95000;
	128	 1	 0.0	 0.0	 0.0	 0.0	 1	    1.03361	   -2.65773	 400.0	 4	    1.05000	    0.95000;
	129	 1	 0.0	 0.0	 0.0	 0.0	 1	    1.04694	  -13.28931	 220.0	 4	    1.11000	    0.95000;
	130	 1	 0.0	 0.0	 0.0	 0.0	 1	    1.03349	  -11.05331	 220.0	 4	    1.11000	    0.95000;
	131	 2	 68.67	 70.0	 0.0	 0.0	 1	    1.09737	   -2.62751	 220.0	 4	    1.11000	    0.95000;
	132	 2	 33.0	 45.0	 0.0	 0.0	 1	    1.09754	   -2.64943	 220.0	 4	    1.11000	    0.95000;
	133	 1	 0.0	 0.0	 0.0	 0.0	 1	    0.98537	   -3.63571	 400.0	 4	    1.05000	    0.95000;
	134	 1	 0.0	 0.0	 0.0	 0.0	 1	    0.98535	   -3.63184	 400.0	 4	    1.05000	    0.95000;
	135	 1	 0.0	 0.0	 0.0	 0.0	 1	    1.06353	   -6.35305	 220.0	 4	    1.11000	    0.95000;
	136	 1	 0.0	 0.0	 0.0	 0.0	 1	    1.06353	   -6.35305	 220.0	 4	    1.11000	    0.95000;
	137	 1	 0.0	 0.0	 0.0	 0.0	 1	    1.00620	   -4.34405	 400.0	 4	    1.05000	    0.95000;
	138	 1	 0.0	 0.0	 0.0	 0.0	 1	    1.00620	   -4.34405	 400.0	 4	    1.05000	    0.95000;
	139	 2	 33.2	 22.6	 0.0	 0.0	 1	    1.11000	   -6.86102	 220.0	 4	    1.11000	    0.95000;
	140	 2	 29.23	 19.6	 0.0	 0.0	 1	    1.11000	   -6.87076	 220.0	 4	    1.11000	    0.95000;
	141	 1	 0.0	 0.0	 0.0	 0.0	 1	    1.05095	  -16.65243	 220.0	 4	    1.11000	    0.95000;
	142	 1	 0.0	 0.0	 0.0	 0.0	 1	    1.06037	   -6.50585	 220.0	 4	    1.11000	    0.95000;
	143	 1	 0.0	 0.0	 0.0	 0.0	 1	    1.07581	  -12.75138	 220.0	 4	    1.11000	    0.95000;
	144	 1	 0.0	 0.0	 0.0	 0.0	 1	    1.07574	  -12.75420	 220.0	 4	    1.11000	    0.95000;
	145	 1	 0.0	 0.0	 0.0	 0.0	 1	    0.97457	  -10.36060	 400.0	 4	    1.05000	    0.95000;
	146	 1	 0.0	 0.0	 0.0	 0.0	 1	    0.97457	  -10.36060	 400.0	 4	    1.05000	    0.95000;
	147	 1	 0.0	 0.0	 0.0	 0.0	 1	    1.04353	  -10.60659	 220.0	 4	    1.11000	    0.95000;
	148	 1	 0.0	 0.0	 0.0	 0.0	 1	    1.04357	  -10.60285	 220.0	 4	    1.11000	    0.95000;
	149	 1	 0.0	 0.0	 0.0	 0.0	 1	    1.07171	  -13.45396	 220.0	 4	    1.11000	    0.95000;
	150	 1	 0.0	 0.0	 0.0	 0.0	 1	    1.06302	   -7.83509	 220.0	 4	    1.11000	    0.95000;
	151	 1	 0.0	 0.0	 0.0	 0.0	 1	    1.06303	   -7.84018	 220.0	 4	    1.11000	    0.95000;
	152	 1	 0.0	 0.0	 0.0	 0.0	 1	    1.06348	   -6.76525	 220.0	 4	    1.11000	    0.95000;
	153	 1	 0.0	 0.0	 0.0	 0.0	 1	    1.06348	   -6.76525	 220.0	 4	    1.11000	    0.95000;
	154	 1	 0.0	 0.0	 0.0	 0.0	 1	    1.02809	  -11.96442	 220.0	 4	    1.11000	    0.95000;
	155	 1	 0.0	 0.0	 0.0	 0.0	 1	    1.06041	  -13.98295	 220.0	 5	    1.11000	    0.95000;
	156	 1	 0.0	 0.0	 0.0	 0.0	 1	    1.11000	  -11.45113	 220.0	 5	    1.11000	    0.95000;
	157	 1	 0.0	 0.0	 0.0	 0.0	 1	    1.02391	   -8.93380	 400.0	 5	    1.05000	    0.95000;
	158	 1	 0.0	 0.0	 0.0	 0.0	 1	    1.02391	   -8.94217	 400.0	 5	    1.05000	    0.95000;
	159	 1	 0.0	 0.0	 0.0	 0.0	 1	    1.02957	  -11.44352	 400.0	 5	    1.05000	    0.95000;
	160	 1	 0.0	 0.0	 0.0	 0.0	 1	    1.02960	  -11.44534	 400.0	 5	    1.05000	    0.95000;
	161	 1	 0.0	 0.0	 0.0	 0.0	 1	    1.05709	  -15.82513	 220.0	 5	    1.11000	    0.95000;
	162	 1	 0.0	 0.0	 0.0	 0.0	 1	    1.05710	  -15.82418	 220.0	 5	    1.11000	    0.95000;
	163	 1	 0.0	 0.0	 0.0	 0.0	 1	    1.09519	  -13.62391	 220.0	 5	    1.11000	    0.95000;
	164	 1	 0.0	 0.0	 0.0	 0.0	 1	    1.09517	  -13.62816	 220.0	 5	    1.11000	    0.95000;
	165	 1	 0.0	 0.0	 0.0	 0.0	 1	    1.00991	  -12.61969	 400.0	 5	    1.05000	    0.95000;
	166	 1	 0.0	 0.0	 0.0	 0.0	 1	    1.07250	  -13.20547	 220.0	 5	    1.11000	    0.95000;
	167	 1	 0.0	 0.0	 0.0	 0.0	 1	    1.07254	  -13.20295	 220.0	 5	    1.11000	    0.95000;
	168	 1	 0.0	 0.0	 0.0	 0.0	 1	    1.02958	  -13.55688	 400.0	 5	    1.05000	    0.95000;
	169	 1	 0.0	 0.0	 0.0	 0.0	 1	    1.02956	  -13.56534	 400.0	 5	    1.05000	    0.95000;
	170	 1	 0.0	 0.0	 0.0	 0.0	 1	    1.04899	  -15.90467	 220.0	 5	    1.11000	    0.95000;
	171	 1	 0.0	 0.0	 0.0	 0.0	 1	    1.04901	  -15.90249	 220.0	 5	    1.11000	    0.95000;
	172	 1	 0.0	 0.0	 0.0	 0.0	 1	    1.06728	  -15.05778	 220.0	 5	    1.11000	    0.95000;
	173	 1	 0.0	 0.0	 0.0	 0.0	 1	    1.06724	  -15.05778	 220.0	 5	    1.11000	    0.95000;
	174	 1	 0.0	 0.0	 0.0	 0.0	 1	    1.06173	  -13.60183	 220.0	 5	    1.11000	    0.95000;
	175	 1	 0.0	 0.0	 0.0	 0.0	 1	    1.06172	  -13.60763	 220.0	 5	    1.11000	    0.95000;
	176	 2	 0.0	 40.0	 0.0	 0.0	 1	    1.03113	   -9.09252	 400.0	 5	    1.05000	    0.95000;
	177	 2	 0.0	 40.0	 0.0	 0.0	 1	    1.03129	   -9.09666	 400.0	 5	    1.05000	    0.95000;
	178	 1	 0.0	 0.0	 0.0	 0.0	 1	    1.07926	  -14.25321	 220.0	 5	    1.11000	    0.95000;
	179	 1	 0.0	 0.0	 0.0	 0.0	 1	    1.07929	  -14.24910	 220.0	 5	    1.11000	    0.95000;
	180	 2	 339.85	 49.6	 0.0	 0.0	 2	    0.95107	   -3.80560	 400.0	 6	    1.05000	    0.95000;
	181	 2	 0.0	 0.0	 0.0	 0.0	 3	    1.11000	    1.96250	 220.0	 6	    1.11000	    0.95000;
	182	 2	 0.0	 0.0	 0.0	 0.0	 5	    0.98496	   -3.32227	 400.0	 6	    1.05000	    0.95000;
	183	 1	 150.0	 0.0	 0.0	 0.0	 3	    1.05000	   -2.26313	 400.0	 6	    1.05000	    0.95000;
	184	 2	 317.34	 50.3	 0.0	 0.0	 2	    1.07901	    1.14514	 220.0	 6	    1.11000	    0.95000;
	185	 2	 362.43	 36.7	 0.0	 0.0	 2	    0.95116	   -4.67627	 400.0	 6	    1.05000	    0.95000;
	186	 2	 33.33	 1.0	 0.0	 0.0	 5	    1.10127	   -2.84406	 220.0	 6	    1.11000	    0.95000;
	187	 1	 7.12	 1.5	 0.0	 0.0	 1	    1.06703	  -16.41481	 110.0	 1	    1.12000	    0.95000;
	188	 1	 7.63	 1.0	 0.0	 0.0	 1	    1.02436	  -21.76227	 110.0	 1	    1.12000	    0.95000;
	189	 1	 9.77	 8.7	 0.0	 0.0	 1	    0.99906	  -20.19279	 110.0	 1	    1.12000	    0.95000;
	190	 1	 6.12	 1.5	 0.0	 0.0	 1	    1.10234	   -2.04324	 110.0	 1	    1.12000	    0.95000;
	191	 1	 6.12	 1.6	 0.0	 0.0	 1	    1.08016	   -3.12477	 110.0	 1	    1.12000	    0.95000;
	192	 2	 30.56	 12.0	 0.0	 0.0	 1	    1.11945	  -12.75005	 110.0	 1	    1.12000	    0.95000;
	193	 1	 15.28	 3.0	 0.0	 0.0	 1	    1.11856	  -12.67184	 110.0	 1	    1.12000	    0.95000;
	194	 1	 0.0	 0.0	 0.0	 0.0	 1	    1.11769	  -12.89276	 110.0	 1	    1.12000	    0.95000;
	195	 1	 8.14	 2.0	 0.0	 0.0	 1	    1.08271	  -17.02091	 110.0	 1	    1.12000	    0.95000;
	196	 2	 6.92	 1.5	 0.0	 0.0	 1	    1.01510	  -18.91576	 110.0	 1	    1.12000	    0.95000;
	197	 1	 6.92	 1.5	 0.0	 0.0	 1	    1.06190	  -11.10777	 110.0	 1	    1.12000	    0.95000;
	198	 2	 12.32	 1.7	 0.0	 0.0	 1	    1.07663	  -17.03588	 110.0	 1	    1.12000	    0.95000;
	199	 1	 1.43	 0.5	 0.0	 0.0	 1	    1.10783	   -4.28437	 110.0	 1	    1.12000	    0.95000;
	200	 1	 1.08	 0.5	 0.0	 0.0	 1	    1.09909	  -16.47229	 110.0	 1	    1.12000	    0.95000;
	201	 1	 5.61	 0.5	 0.0	 0.0	 1	    1.07913	  -17.31543	 110.0	 1	    1.12000	    0.95000;
	202	 1	 18.34	 2.0	 0.0	 0.0	 1	    1.09464	  -14.41433	 110.0	 1	    1.12000	    0.95000;
	203	 1	 11.1	 1.6	 0.0	 0.0	 1	    1.07834	  -17.19778	 110.0	 1	    1.12000	    0.95000;
	204	 1	 0.0	 0.0	 0.0	 0.0	 1	    1.11937	   -7.99217	 110.0	 1	    1.12000	    0.95000;
	205	 2	 6.92	 2.0	 0.0	 0.0	 1	    1.12000	   -5.71508	 110.0	 1	    1.12000	    0.95000;
	206	 1	 11.2	 1.0	 0.0	 0.0	 1	    1.06548	  -17.86717	 110.0	 1	    1.12000	    0.95000;
	207	 1	 7.32	 1.6	 0.0	 0.0	 1	    1.08181	   -2.91114	 110.0	 1	    1.12000	    0.95000;
	208	 1	 -7.32	 -4.5	 0.0	 0.0	 1	    1.08748	   -6.91427	 110.0	 1	    1.12000	    0.95000;
	209	 1	 9.36	 0.8	 0.0	 0.0	 1	    1.07624	  -18.29427	 110.0	 1	    1.12000	    0.95000;
	210	 1	 15.18	 4.4	 0.0	 0.0	 1	    1.11758	   -5.71955	 110.0	 1	    1.12000	    0.95000;
	211	 1	 8.75	 0.2	 0.0	 0.0	 1	    1.07523	  -18.30796	 110.0	 1	    1.12000	    0.95000;
	212	 1	 10.18	 1.5	 0.0	 0.0	 1	    1.08403	  -15.52593	 110.0	 1	    1.12000	    0.95000;
	213	 2	 -2.04	 -1.0	 0.0	 0.0	 1	    1.06545	  -17.67196	 110.0	 1	    1.12000	    0.95000;
	214	 1	 12.02	 0.5	 0.0	 0.0	 1	    1.07106	  -19.58312	 110.0	 1	    1.12000	    0.95000;
	215	 1	 6.92	 2.0	 0.0	 0.0	 1	    1.11627	   -5.66612	 110.0	 1	    1.12000	    0.95000;
	216	 1	 8.85	 0.5	 0.0	 0.0	 1	    1.10727	   -3.30654	 110.0	 1	    1.12000	    0.95000;
	217	 1	 1.94	 0.4	 0.0	 0.0	 1	    1.11958	  -10.92382	 110.0	 1	    1.12000	    0.95000;
	218	 1	 12.22	 1.5	 0.0	 0.0	 1	    1.06269	  -18.98915	 110.0	 1	    1.12000	    0.95000;
	219	 1	 2.55	 0.5	 0.0	 0.0	 1	    1.07815	  -17.67284	 110.0	 1	    1.12000	    0.95000;
	220	 1	 2.55	 0.5	 0.0	 0.0	 1	    1.04662	  -18.67463	 110.0	 1	    1.12000	    0.95000;
	221	 1	 4.08	 0.5	 0.0	 0.0	 1	    1.00613	  -24.49011	 110.0	 1	    1.12000	    0.95000;
	222	 1	 6.53	 0.4	 0.0	 0.0	 1	    1.09649	  -15.56481	 110.0	 1	    1.12000	    0.95000;
	223	 1	 18.65	 4.0	 0.0	 0.0	 1	    1.08431	  -12.04581	 110.0	 1	    1.12000	    0.95000;
	224	 1	 19.86	 2.5	 0.0	 0.0	 1	    1.06745	  -17.83577	 110.0	 1	    1.12000	    0.95000;
	225	 1	 17.3	 2.0	 0.0	 0.0	 1	    1.03322	  -21.35362	 110.0	 1	    1.12000	    0.95000;
	226	 1	 24.44	 1.5	 0.0	 0.0	 1	    1.07937	  -17.52981	 110.0	 1	    1.12000	    0.95000;
	227	 1	 5.61	 1.0	 0.0	 0.0	 1	    1.07883	  -17.60454	 110.0	 1	    1.12000	    0.95000;
	228	 1	 11.4	 1.1	 0.0	 0.0	 1	    1.07658	   -3.56996	 110.0	 1	    1.12000	    0.95000;
	229	 1	 11.0	 2.7	 0.0	 0.0	 1	    1.10711	   -9.15442	 110.0	 1	    1.12000	    0.95000;
	230	 1	 7.63	 1.0	 0.0	 0.0	 1	    1.00231	  -25.16962	 110.0	 1	    1.12000	    0.95000;
	231	 1	 7.94	 1.1	 0.0	 0.0	 1	    1.09805	  -14.37523	 110.0	 1	    1.12000	    0.95000;
	232	 1	 7.94	 1.1	 0.0	 0.0	 1	    1.06923	  -14.84459	 110.0	 1	    1.12000	    0.95000;
	233	 1	 1.84	 0.8	 0.0	 0.0	 1	    1.07204	  -18.97401	 110.0	 1	    1.12000	    0.95000;
	234	 1	 33.46	 28.0	 0.0	 0.0	 1	    1.08178	   -2.67641	 110.0	 1	    1.12000	    0.95000;
	235	 1	 33.76	 28.0	 0.0	 0.0	 1	    1.08940	   -1.34533	 110.0	 1	    1.12000	    0.95000;
	236	 1	 1.02	 0.5	 0.0	 0.0	 1	    1.06531	  -17.62603	 110.0	 1	    1.12000	    0.95000;
	237	 1	 13.95	 1.7	 0.0	 0.0	 1	    1.08427	  -18.15237	 110.0	 1	    1.12000	    0.95000;
	238	 1	 9.98	 1.0	 0.0	 0.0	 1	    1.10137	  -14.95086	 110.0	 1	    1.12000	    0.95000;
	239	 1	 15.28	 1.5	 0.0	 0.0	 1	    1.09654	  -14.59607	 110.0	 1	    1.12000	    0.95000;
	240	 1	 11.2	 1.5	 0.0	 0.0	 1	    1.00955	  -23.82469	 110.0	 1	    1.12000	    0.95000;
	241	 1	 10.18	 3.0	 0.0	 0.0	 1	    1.06172	  -17.09166	 110.0	 1	    1.12000	    0.95000;
	242	 1	 1.22	 0.1	 0.0	 0.0	 1	    1.07000	  -17.04071	 110.0	 1	    1.12000	    0.95000;
	243	 1	 0.0	 0.0	 0.0	 0.0	 1	    1.11859	  -13.43758	 110.0	 1	    1.12000	    0.95000;
	244	 1	 1.02	 0.0	 0.0	 0.0	 1	    1.10834	  -14.38209	 110.0	 1	    1.12000	    0.95000;
	245	 1	 12.12	 5.4	 0.0	 0.0	 1	    1.11948	   -6.95993	 110.0	 1	    1.12000	    0.95000;
	246	 1	 -8.14	 -3.6	 0.0	 0.0	 1	    1.12000	   -5.35503	 110.0	 1	    1.12000	    0.95000;
	247	 1	 11.2	 1.5	 0.0	 0.0	 1	    1.06569	  -10.80285	 110.0	 1	    1.12000	    0.95000;
	248	 1	 3.06	 0.5	 0.0	 0.0	 1	    1.11045	  -13.48947	 110.0	 1	    1.12000	    0.95000;
	249	 1	 9.16	 0.0	 0.0	 0.0	 1	    1.09787	  -14.22289	 110.0	 1	    1.12000	    0.95000;
	250	 1	 27.71	 3.0	 0.0	 0.0	 1	    1.10092	  -15.04337	 110.0	 1	    1.12000	    0.95000;
	251	 1	 21.38	 4.0	 0.0	 0.0	 1	    1.08808	   -1.57543	 110.0	 1	    1.12000	    0.95000;
	252	 1	 21.38	 4.0	 0.0	 0.0	 1	    1.07655	   -3.51576	 110.0	 1	    1.12000	    0.95000;
	253	 1	 14.87	 4.3	 0.0	 0.0	 1	    1.11775	   -6.89683	 110.0	 1	    1.12000	    0.95000;
	254	 1	 19.86	 3.5	 0.0	 0.0	 1	    1.10724	   -8.29050	 110.0	 1	    1.12000	    0.95000;
	255	 1	 10.18	 1.0	 0.0	 0.0	 1	    1.08107	  -16.73575	 110.0	 1	    1.12000	    0.95000;
	256	 1	 5.61	 0.0	 0.0	 0.0	 1	    1.10341	  -14.73618	 110.0	 1	    1.12000	    0.95000;
	257	 1	 7.12	 0.2	 0.0	 0.0	 1	    1.06152	  -17.32369	 110.0	 1	    1.12000	    0.95000;
	258	 1	 4.08	 0.3	 0.0	 0.0	 1	    1.07481	  -11.39412	 110.0	 1	    1.12000	    0.95000;
	259	 1	 20.87	 4.2	 0.0	 0.0	 1	    1.09816	  -15.32297	 110.0	 1	    1.12000	    0.95000;
	260	 1	 10.69	 1.5	 0.0	 0.0	 1	    1.10484	  -14.03337	 110.0	 1	    1.12000	    0.95000;
	261	 1	 7.94	 2.0	 0.0	 0.0	 1	    1.11757	   -5.71834	 110.0	 1	    1.12000	    0.95000;
	262	 1	 0.2	 0.0	 0.0	 0.0	 1	    1.09467	  -15.76852	 110.0	 1	    1.12000	    0.95000;
	263	 1	 5.3	 1.0	 0.0	 0.0	 1	    1.05737	  -16.60453	 110.0	 1	    1.12000	    0.95000;
	264	 2	 12.22	 1.0	 0.0	 0.0	 1	    1.07608	  -18.95554	 110.0	 1	    1.12000	    0.95000;
	265	 1	 12.22	 1.0	 0.0	 0.0	 1	    1.07649	  -11.50382	 110.0	 1	    1.12000	    0.95000;
	266	 1	 8.34	 1.6	 0.0	 0.0	 1	    1.08526	   -7.76883	 110.0	 1	    1.12000	    0.95000;
	267	 1	 10.38	 3.0	 0.0	 0.0	 1	    1.11795	   -7.94625	 110.0	 1	    1.12000	    0.95000;
	268	 1	 14.87	 3.7	 0.0	 0.0	 1	    1.11865	   -5.82458	 110.0	 1	    1.12000	    0.95000;
	269	 2	 15.28	 4.0	 0.0	 0.0	 1	    1.10326	  -13.51052	 110.0	 1	    1.12000	    0.95000;
	270	 1	 3.67	 0.5	 0.0	 0.0	 1	    1.11927	   -5.46974	 110.0	 1	    1.12000	    0.95000;
	271	 1	 3.67	 0.5	 0.0	 0.0	 1	    1.09788	   -5.34517	 110.0	 1	    1.12000	    0.95000;
	272	 1	 9.26	 3.0	 0.0	 0.0	 1	    1.11767	   -5.70521	 110.0	 1	    1.12000	    0.95000;
	273	 1	 12.93	 3.7	 0.0	 0.0	 1	    1.11612	   -5.67300	 110.0	 1	    1.12000	    0.95000;
	274	 1	 25.67	 7.4	 0.0	 0.0	 1	    1.11774	   -6.94476	 110.0	 1	    1.12000	    0.95000;
	275	 1	 23.22	 6.7	 0.0	 0.0	 1	    1.11826	   -8.00778	 110.0	 1	    1.12000	    0.95000;
	276	 1	 14.26	 5.1	 0.0	 0.0	 1	    1.11404	   -7.35620	 110.0	 1	    1.12000	    0.95000;
	277	 2	 52.14	 20.4	 0.0	 0.0	 1	    1.11840	   -7.38015	 110.0	 1	    1.12000	    0.95000;
	278	 2	 24.95	 9.7	 0.0	 0.0	 1	    1.12000	   -7.92414	 110.0	 1	    1.12000	    0.95000;
	279	 2	 24.95	 9.7	 0.0	 0.0	 1	    1.11864	   -5.52605	 110.0	 1	    1.12000	    0.95000;
	280	 1	 0.0	 0.0	 0.0	 0.0	 1	    1.11806	   -7.96879	 110.0	 1	    1.12000	    0.95000;
	281	 2	 30.66	 11.9	 0.0	 0.0	 1	    1.12000	   -6.84356	 110.0	 1	    1.12000	    0.95000;
	282	 2	 13.14	 5.1	 0.0	 0.0	 1	    1.12000	   -5.55829	 110.0	 1	    1.12000	    0.95000;
	283	 1	 17.02	 0.2	 0.0	 0.0	 1	    1.08744	  -10.58129	 110.0	 1	    1.12000	    0.95000;
	284	 1	 2.55	 0.5	 0.0	 0.0	 1	    1.10440	  -14.23566	 110.0	 1	    1.12000	    0.95000;
	285	 1	 8.14	 1.5	 0.0	 0.0	 1	    1.06997	  -17.77393	 110.0	 1	    1.12000	    0.95000;
	286	 1	 29.75	 4.1	 0.0	 0.0	 1	    1.06620	  -17.95918	 110.0	 1	    1.12000	    0.95000;
	287	 1	 12.22	 4.0	 0.0	 0.0	 1	    1.06124	  -16.97607	 110.0	 1	    1.12000	    0.95000;
	288	 1	 13.14	 3.8	 0.0	 0.0	 1	    1.11761	   -6.89614	 110.0	 1	    1.12000	    0.95000;
	289	 2	 21.28	 6.1	 0.0	 0.0	 1	    1.11677	   -7.13403	 110.0	 1	    1.12000	    0.95000;
	290	 1	 17.32	 3.0	 0.0	 0.0	 1	    1.09502	  -14.42551	 110.0	 1	    1.12000	    0.95000;
	291	 1	 16.81	 5.4	 0.0	 0.0	 1	    1.11908	   -5.62470	 110.0	 1	    1.12000	    0.95000;
	292	 1	 17.32	 5.0	 0.0	 0.0	 1	    1.11691	   -7.49690	 110.0	 1	    1.12000	    0.95000;
	293	 1	 7.43	 2.1	 0.0	 0.0	 1	    1.11752	   -7.58159	 110.0	 1	    1.12000	    0.95000;
	294	 2	 15.28	 3.0	 0.0	 0.0	 1	    1.09725	  -14.21049	 110.0	 1	    1.12000	    0.95000;
	295	 1	 21.28	 3.4	 0.0	 0.0	 1	    1.06762	  -18.44541	 110.0	 1	    1.12000	    0.95000;
	296	 1	 17.63	 5.1	 0.0	 0.0	 1	    1.11750	   -7.58824	 110.0	 1	    1.12000	    0.95000;
	297	 1	 8.55	 2.0	 0.0	 0.0	 1	    1.09534	   -7.61014	 110.0	 1	    1.12000	    0.95000;
	298	 1	 7.02	 1.6	 0.0	 0.0	 1	    1.09327	   -7.79053	 110.0	 1	    1.12000	    0.95000;
	299	 1	 48.06	 13.8	 0.0	 0.0	 1	    1.11412	   -7.35099	 110.0	 1	    1.12000	    0.95000;
	300	 1	 21.38	 9.0	 0.0	 0.0	 1	    1.05835	  -14.16272	 110.0	 1	    1.12000	    0.95000;
	301	 1	 6.22	 1.3	 0.0	 0.0	 1	    1.10404	   -9.37882	 110.0	 1	    1.12000	    0.95000;
	302	 1	 6.12	 1.3	 0.0	 0.0	 1	    1.06673	  -18.51040	 110.0	 1	    1.12000	    0.95000;
	303	 1	 6.32	 0.5	 0.0	 0.0	 1	    1.06212	  -20.07950	 110.0	 1	    1.12000	    0.95000;
	304	 1	 17.83	 5.1	 0.0	 0.0	 1	    1.11636	   -5.64059	 110.0	 1	    1.12000	    0.95000;
	305	 1	 7.53	 1.1	 0.0	 0.0	 1	    1.08157	  -15.70138	 110.0	 1	    1.12000	    0.95000;
	306	 1	 21.38	 4.0	 0.0	 0.0	 1	    1.11843	  -13.47035	 110.0	 1	    1.12000	    0.95000;
	307	 1	 18.34	 4.0	 0.0	 0.0	 1	    1.06253	  -17.57705	 110.0	 1	    1.12000	    0.95000;
	308	 1	 5.1	 0.0	 0.0	 0.0	 1	    1.10894	  -13.86076	 110.0	 1	    1.12000	    0.95000;
	309	 1	 0.0	 0.0	 0.0	 0.0	 1	    1.11914	  -13.26352	 110.0	 1	    1.12000	    0.95000;
	310	 1	 0.0	 0.0	 0.0	 0.0	 1	    1.07323	  -13.85977	 110.0	 1	    1.12000	    0.95000;
	311	 1	 32.4	 5.7	 0.0	 0.0	 1	    1.06267	  -14.74417	 110.0	 1	    1.12000	    0.95000;
	312	 1	 0.0	 0.0	 0.0	 0.0	 1	    1.06268	  -14.74408	 110.0	 1	    1.12000	    0.95000;
	313	 1	 7.12	 0.5	 0.0	 0.0	 1	    1.03532	  -22.30717	 110.0	 1	    1.12000	    0.95000;
	314	 2	 7.73	 1.5	 0.0	 0.0	 1	    1.08470	  -14.11664	 110.0	 1	    1.12000	    0.95000;
	315	 1	 9.47	 0.0	 0.0	 0.0	 1	    1.06812	  -19.74532	 110.0	 1	    1.12000	    0.95000;
	316	 1	 16.2	 4.0	 0.0	 0.0	 1	    1.11888	   -6.64175	 110.0	 1	    1.12000	    0.95000;
	317	 1	 7.12	 2.0	 0.0	 0.0	 1	    1.08949	  -16.60073	 110.0	 1	    1.12000	    0.95000;
	318	 1	 6.12	 2.0	 0.0	 0.0	 1	    1.06236	  -16.79587	 110.0	 1	    1.12000	    0.95000;
	319	 1	 0.81	 0.3	 0.0	 0.0	 1	    1.07818	   -3.25839	 110.0	 1	    1.12000	    0.95000;
	320	 1	 7.12	 1.0	 0.0	 0.0	 1	    1.09418	  -15.50584	 110.0	 1	    1.12000	    0.95000;
	321	 1	 0.0	 0.0	 0.0	 0.0	 1	    1.09410	  -14.56417	 110.0	 1	    1.12000	    0.95000;