%%%%%%%%%%%%%%%%%%%%%%%%%%%%%%%%%%%%%%%%%%%%%%%%%%%%%%%%%%%%%%%%%%%%%%%%%%%
%%%%                                                                  %%%%%
%%%%    IEEE PES Power Grid Library - Optimal Power Flow - v17.07     %%%%%
%%%%          (https://github.com/power-grid-lib/pglib-opf)           %%%%%
%%%%             Benchmark Group - Small Angle Difference             %%%%%
%%%%                         27 - June - 2017                         %%%%%
%%%%                                                                  %%%%%
%%%%%%%%%%%%%%%%%%%%%%%%%%%%%%%%%%%%%%%%%%%%%%%%%%%%%%%%%%%%%%%%%%%%%%%%%%%
function mpc = pglib_opf_case6470_rte__sad
mpc.version = '2';
mpc.baseMVA = 100.0;

%% bus data
%	bus_i	type	Pd	Qd	Gs	Bs	area	Vm	Va	baseKV	zone	Vmax	Vmin
mpc.bus = [
	1	 1	 0.0	 0.0	 0.0	 0.0	 1	    0.99212	  -12.83823	 45.0	 1	    1.00000	    0.88889;
	2	 1	 0.0	 0.0	 0.0	 0.0	 1	    1.04629	   -9.64679	 63.0	 1	    1.06349	    0.93651;
	3	 1	 12.5	 -0.7	 0.0	 0.0	 1	    1.01890	  -14.57345	 63.0	 1	    1.07937	    0.95238;
	4	 1	 44.7	 -0.9	 0.0	 0.0	 1	    1.06008	   -8.08251	 90.0	 1	    1.08889	    0.93333;
	5	 1	 12.0	 0.1	 0.0	 0.0	 1	    1.02521	  -28.36916	 63.0	 1	    1.06349	    0.95238;
	6	 1	 13.0	 4.3	 0.0	 0.0	 1	    1.04472	  -12.20635	 63.0	 1	    1.07937	    0.92063;
	7	 1	 1.2	 0.8	 0.0	 0.0	 1	    1.05075	  -14.21121	 63.0	 1	    1.07937	    0.92063;
	8	 1	 25.8	 4.9	 0.0	 0.0	 1	    1.07132	   -7.99567	 225.0	 1	    1.08889	    0.88889;
	9	 1	 12.9	 0.0	 0.0	 0.0	 1	    1.04894	  -19.13960	 63.0	 1	    1.06349	    0.93651;
	10	 1	 0.0	 0.0	 0.0	 0.0	 1	    1.04249	  -11.13711	 90.0	 1	    1.07778	    0.92222;
	11	 1	 28.8	 1.1	 0.0	 0.0	 1	    1.04249	  -11.13711	 90.0	 1	    1.07778	    0.92222;
	12	 1	 0.0	 0.0	 0.0	 0.0	 1	    1.02756	   -3.26098	 63.0	 1	    1.07937	    0.95238;
	13	 1	 0.0	 0.0	 0.0	 0.0	 1	    1.08848	   -1.79810	 380.0	 1	    1.10263	    1.05526;
	14	 1	 51.5	 1.9	 0.0	 0.0	 1	    1.06655	  -12.56100	 90.0	 1	    1.07778	    0.97778;
	15	 1	 0.0	 0.0	 0.0	 0.0	 1	    1.02365	  -17.18290	 63.0	 1	    1.07937	    0.92063;
	16	 1	 13.8	 4.1	 0.0	 0.0	 1	    1.03778	  -20.93616	 63.0	 1	    1.07937	    0.92063;
	17	 1	 13.1	 0.2	 0.0	 0.0	 1	    1.05861	  -17.23641	 90.0	 1	    1.06667	    0.97778;
	18	 1	 0.0	 0.0	 0.0	 0.0	 1	    0.96013	   -8.19409	 45.0	 1	    1.00000	    0.88889;
	19	 1	 1.0	 0.0	 0.0	 0.0	 1	    1.03162	  -14.18376	 63.0	 1	    1.06349	    0.93651;
	20	 1	 0.9	 -21.5	 0.0	 0.0	 1	    0.96111	   -8.22294	 45.0	 1	    1.00000	    0.88889;
	21	 1	 8.3	 -3.3	 0.0	 0.0	 1	    1.04145	  -10.92142	 90.0	 1	    1.06667	    0.97778;
	22	 1	 18.0	 1.1	 0.0	 0.0	 1	    1.04579	   -7.38956	 63.0	 1	    1.07937	    0.95238;
	23	 1	 19.2	 3.4	 0.0	 0.0	 1	    1.04371	  -10.36008	 63.0	 1	    1.06349	    0.93651;
	24	 1	 16.1	 -1.6	 0.0	 0.0	 1	    1.06956	   -5.15059	 90.0	 1	    1.11111	    0.95556;
	25	 1	 59.9	 -3.2	 0.0	 0.0	 1	    1.08484	   -7.27992	 90.0	 1	    1.10000	    0.94444;
	26	 1	 35.1	 8.1	 0.0	 0.0	 1	    1.02893	  -10.71053	 90.0	 1	    1.06667	    0.97778;
	27	 1	 0.0	 0.0	 0.0	 0.0	 1	    1.07212	   -7.17351	 225.0	 1	    1.08444	    1.00444;
	28	 1	 0.7	 0.2	 0.0	 0.0	 1	    1.03850	  -17.42038	 63.0	 1	    1.07937	    0.95238;
	29	 1	 60.1	 2.7	 0.0	 0.0	 1	    1.02585	  -15.60675	 63.0	 1	    1.06349	    0.96825;
	30	 1	 33.5	 -0.9	 0.0	 0.0	 1	    1.04374	  -10.11571	 90.0	 1	    1.08889	    0.93333;
	31	 1	 0.0	 0.0	 0.0	 0.0	 1	    1.05661	  -10.15323	 63.0	 1	    1.06349	    0.93651;
	32	 1	 0.0	 0.0	 0.0	 0.0	 1	    1.05698	   -7.55278	 150.0	 1	    1.10667	    0.90000;
	33	 1	 0.0	 0.0	 0.0	 0.0	 1	    1.07490	   -8.03376	 225.0	 1	    1.08889	    0.93333;
	34	 1	 0.0	 0.0	 0.0	 0.0	 1	    1.07559	   -7.67349	 225.0	 1	    1.08889	    0.93333;
	35	 1	 0.0	 0.0	 0.0	 0.0	 1	    1.08860	   -6.41787	 380.0	 1	    1.10526	    1.03947;
	36	 1	 0.0	 0.0	 0.0	 0.0	 1	    1.08527	   -4.74141	 380.0	 1	    1.10526	    1.03947;
	37	 1	 3.2	 4.3	 0.0	 0.0	 1	    1.01904	  -15.84776	 63.0	 1	    1.07937	    0.92063;
	38	 1	 6.0	 -2.0	 0.0	 0.0	 1	    1.06109	  -11.94219	 63.0	 1	    1.09524	    0.93651;
	39	 1	 41.0	 -3.3	 0.0	 0.0	 1	    1.04602	  -23.16144	 90.0	 1	    1.07778	    0.97778;
	40	 1	 32.6	 0.5	 0.0	 0.0	 1	    1.05942	  -10.75422	 90.0	 1	    1.07778	    0.97778;
	41	 1	 0.0	 0.0	 0.0	 0.0	 1	    1.08729	  -12.54866	 225.0	 1	    1.08889	    1.00444;
	42	 1	 0.0	 0.0	 0.0	 0.0	 1	    1.13147	    0.61233	 63.0	 1	    1.13259	    0.95238;
	43	 1	 3.6	 2.0	 0.0	 0.0	 1	    1.05075	  -12.53579	 90.0	 1	    1.07778	    0.97778;
	44	 1	 13.0	 -0.7	 0.0	 0.0	 1	    1.00712	  -29.85463	 63.0	 1	    1.06349	    0.95238;
	45	 1	 3.9	 1.7	 0.0	 0.0	 1	    1.01118	  -18.28689	 90.0	 1	    1.06667	    0.97778;
	46	 1	 0.0	 0.0	 0.0	 0.0	 1	    1.03700	  -15.75169	 63.0	 1	    1.06349	    0.93651;
	47	 2	 0.0	 0.0	 0.0	 0.0	 1	    1.05498	  -14.65112	 63.0	 1	    1.06349	    0.93651;
	48	 1	 36.5	 3.4	 0.0	 0.0	 1	    1.06835	   -4.58930	 90.0	 1	    1.07778	    0.92222;
	49	 1	 8.8	 -1.7	 0.0	 0.0	 1	    1.03700	  -13.51581	 63.0	 1	    1.06349	    0.93651;
	50	 1	 0.0	 0.0	 0.0	 0.0	 1	    1.07002	  -15.33256	 63.0	 1	    1.07012	    0.93651;
	51	 1	 0.0	 0.0	 0.0	 0.0	 1	    1.06020	  -10.90176	 225.0	 1	    1.08889	    0.93333;
	52	 1	 5.0	 2.4	 0.0	 0.0	 1	    1.03916	  -19.79276	 90.0	 1	    1.06667	    0.97778;
	53	 1	 2.5	 -0.5	 0.0	 0.0	 1	    1.02454	  -13.71999	 63.0	 1	    1.04762	    0.95238;
	54	 1	 -0.4	 -0.0	 0.0	 0.0	 1	    1.04646	   -8.02221	 90.0	 1	    1.06667	    0.97778;
	55	 1	 37.6	 6.7	 0.0	 0.0	 1	    1.07711	  -14.50350	 225.0	 1	    1.08889	    1.00444;
	56	 1	 52.1	 13.5	 0.0	 0.0	 1	    1.08352	  -12.20753	 225.0	 1	    1.08889	    1.00444;
	57	 2	 0.0	 0.0	 0.0	 0.0	 1	    1.06350	  -12.74974	 63.0	 1	    1.07937	    0.92063;
	58	 1	 130.6	 30.1	 0.0	 0.0	 1	    1.07691	  -14.52021	 225.0	 1	    1.08889	    1.00444;
	59	 1	 5.1	 1.3	 0.0	 0.0	 1	    1.02453	  -12.75023	 63.0	 1	    1.07937	    0.95238;
	60	 1	 0.0	 0.0	 0.0	 0.0	 1	    1.04436	   -8.40217	 63.0	 1	    1.07937	    0.95238;
	61	 1	 39.5	 9.7	 0.0	 0.0	 1	    1.03950	   -9.49417	 63.0	 1	    1.07937	    0.95238;
	62	 1	 0.0	 0.0	 0.0	 0.0	 1	    1.02983	   -8.79836	 63.0	 1	    1.07937	    0.95238;
	63	 1	 15.8	 2.0	 0.0	 0.0	 1	    1.02189	   -3.26528	 63.0	 1	    1.07937	    0.95238;
	64	 1	 62.4	 1.0	 0.0	 0.0	 1	    1.08541	   -4.06455	 225.0	 1	    1.08889	    0.88889;
	65	 1	 11.0	 2.8	 0.0	 0.0	 1	    1.05094	  -10.12530	 63.0	 1	    1.07937	    0.95238;
	66	 1	 13.2	 -7.9	 0.0	 0.0	 1	    1.04261	  -18.35645	 63.0	 1	    1.06349	    0.93651;
	67	 1	 0.0	 0.0	 0.0	 0.0	 1	    1.03670	  -10.04058	 63.0	 1	    1.07937	    0.92063;
	68	 1	 48.1	 -0.1	 0.0	 0.0	 1	    1.03267	  -14.92521	 63.0	 1	    1.06349	    0.93651;
	69	 1	 19.3	 -2.7	 0.0	 0.0	 1	    1.04782	  -30.99214	 63.0	 1	    1.06349	    0.95238;
	70	 1	 10.6	 2.7	 0.0	 0.0	 1	    1.03564	    0.04179	 63.0	 1	    1.07937	    0.95238;
	71	 1	 62.4	 14.9	 0.0	 0.0	 1	    1.03400	  -16.36428	 63.0	 1	    1.04762	    0.95238;
	72	 1	 0.0	 0.0	 0.0	 0.0	 1	    1.09027	   -5.07762	 225.0	 1	    1.09027	    1.00444;
	73	 1	 0.0	 0.0	 0.0	 0.0	 1	    1.09025	   -5.07749	 225.0	 1	    1.09025	    1.00444;
	74	 1	 50.4	 -9.9	 0.0	 0.0	 1	    1.08523	   -4.08838	 225.0	 1	    1.08889	    0.88889;
	75	 1	 22.3	 1.8	 0.0	 0.0	 1	    1.06543	  -10.55132	 90.0	 1	    1.06730	    0.97778;
	76	 1	 2.6	 -0.4	 0.0	 0.0	 1	    1.08756	   -0.22009	 225.0	 1	    1.08923	    0.98667;
	77	 1	 36.8	 -0.4	 0.0	 0.0	 1	    1.03487	  -14.91077	 63.0	 1	    1.06349	    0.93651;
	78	 1	 0.0	 0.0	 0.0	 0.0	 1	    1.02911	  -15.27278	 63.0	 1	    1.07937	    0.92063;
	79	 1	 0.0	 0.0	 0.0	 0.0	 1	    1.03204	  -12.12297	 63.0	 1	    1.04762	    0.95238;
	80	 1	 32.3	 7.3	 0.0	 0.0	 1	    1.08853	  -12.14786	 225.0	 1	    1.08889	    1.00444;
	81	 1	 36.3	 9.9	 0.0	 0.0	 1	    1.08854	  -12.14797	 225.0	 1	    1.08889	    1.00444;
	82	 1	 11.7	 1.6	 0.0	 0.0	 1	    1.03664	  -13.91907	 63.0	 1	    1.06349	    0.93651;
	83	 1	 77.5	 26.4	 0.0	 0.0	 1	    1.06745	  -12.89846	 225.0	 1	    1.08889	    1.00444;
	84	 1	 -1.6	 -1.2	 0.0	 0.0	 1	    1.05448	  -10.01666	 63.0	 1	    1.06349	    0.93651;
	85	 1	 2.1	 -2.1	 0.0	 0.0	 1	    1.05496	  -10.56802	 63.0	 1	    1.06349	    0.93651;
	86	 1	 48.9	 3.6	 0.0	 0.0	 1	    1.01706	  -24.54221	 90.0	 1	    1.06667	    0.97778;
	87	 1	 0.0	 0.0	 0.0	 0.0	 1	    1.02922	   -3.60653	 63.0	 1	    1.07937	    0.95238;
	88	 1	 13.5	 -0.1	 0.0	 0.0	 1	    1.02877	  -13.96741	 63.0	 1	    1.06349	    0.93651;
	89	 1	 25.4	 0.8	 0.0	 0.0	 1	    1.04365	  -15.09569	 90.0	 1	    1.07778	    0.97778;
	90	 1	 0.4	 -1.4	 0.0	 0.0	 1	    0.96033	   -8.74932	 45.0	 1	    1.00000	    0.88889;
	91	 1	 1.0	 0.0	 0.0	 0.0	 1	    0.95954	   -8.27548	 45.0	 1	    1.00000	    0.88889;
	92	 1	 28.6	 3.2	 0.0	 0.0	 1	    1.03852	  -14.84694	 63.0	 1	    1.06349	    0.96825;
	93	 1	 2.1	 -2.5	 0.0	 0.0	 1	    0.98458	   -9.26697	 45.0	 1	    1.00000	    0.88889;
	94	 1	 17.5	 -4.3	 0.0	 0.0	 1	    1.04816	  -11.03106	 90.0	 1	    1.06667	    0.97778;
	95	 1	 46.5	 7.6	 0.0	 0.0	 1	    1.03357	  -19.17267	 90.0	 1	    1.06667	    0.97778;
	96	 1	 1.5	 -0.7	 0.0	 0.0	 1	    1.05613	   -9.19213	 63.0	 1	    1.06349	    0.93651;
	97	 1	 56.4	 0.9	 0.0	 0.0	 1	    1.06479	  -18.23568	 63.0	 1	    1.07937	    0.92063;
	98	 1	 7.4	 -1.3	 0.0	 0.0	 1	    1.04726	  -12.33877	 63.0	 1	    1.07937	    0.95238;
	99	 1	 26.9	 3.1	 0.0	 0.0	 1	    1.04724	   -9.14905	 63.0	 1	    1.07937	    0.95238;
	100	 1	 53.3	 8.6	 0.0	 0.0	 1	    1.01662	  -16.22100	 63.0	 1	    1.06349	    0.93651;
	101	 1	 17.7	 0.5	 0.0	 0.0	 1	    1.05096	  -11.48681	 63.0	 1	    1.06349	    0.93651;
	102	 2	 0.0	 0.0	 0.0	 0.0	 1	    1.05324	   -8.10788	 63.0	 1	    1.07937	    0.95238;
	103	 1	 18.0	 -1.1	 0.0	 0.0	 1	    1.03985	   -8.35244	 63.0	 1	    1.07937	    0.95238;
	104	 1	 0.0	 0.0	 0.0	 0.0	 1	    1.07976	   -5.69928	 225.0	 1	    1.08889	    0.98667;
	105	 1	 35.5	 1.0	 0.0	 0.0	 1	    1.06333	   -6.58639	 225.0	 1	    1.08889	    0.88889;
	106	 1	 49.8	 7.5	 0.0	 0.0	 1	    1.06131	  -10.53514	 90.0	 1	    1.10000	    0.94444;
	107	 1	 77.6	 8.1	 0.0	 0.0	 1	    1.08023	  -20.33739	 225.0	 1	    1.08444	    1.00889;
	108	 1	 12.6	 -0.4	 0.0	 0.0	 1	    1.06351	   -8.99398	 90.0	 1	    1.07778	    0.97778;
	109	 1	 68.7	 10.9	 0.0	 0.0	 1	    1.06160	  -11.36359	 63.0	 1	    1.06349	    0.93651;
	110	 1	 0.0	 0.0	 0.0	 0.0	 1	    1.04593	   -8.59112	 225.0	 1	    1.08889	    0.93333;
	111	 1	 36.5	 -7.9	 0.0	 0.0	 1	    1.02590	  -15.08637	 63.0	 1	    1.06349	    0.96825;
	112	 1	 0.0	 0.0	 0.0	 0.0	 1	    1.03715	  -14.18131	 63.0	 1	    1.04762	    0.95238;
	113	 1	 0.0	 0.0	 0.0	 0.0	 1	    1.07757	  -11.44557	 225.0	 1	    1.08889	    1.00444;
	114	 1	 10.8	 -0.0	 0.0	 0.0	 1	    1.05357	  -14.20249	 63.0	 1	    1.06349	    0.93651;
	115	 1	 0.0	 0.0	 0.0	 0.0	 1	    1.08867	   -1.75813	 380.0	 1	    1.10526	    1.05263;
	116	 1	 0.0	 0.0	 0.0	 0.0	 1	    1.08849	   -1.79819	 380.0	 1	    1.10526	    1.05263;
	117	 1	 15.4	 -1.0	 0.0	 0.0	 1	    1.02520	  -17.53597	 63.0	 1	    1.07937	    0.95238;
	118	 1	 2.0	 0.8	 0.0	 0.0	 1	    1.06769	  -10.28417	 90.0	 1	    1.06958	    0.97778;
	119	 1	 37.2	 5.3	 0.0	 0.0	 1	    1.03390	   -9.04196	 63.0	 1	    1.06349	    0.93651;
	120	 1	 17.0	 -3.2	 0.0	 0.0	 1	    1.04990	   -9.68946	 63.0	 1	    1.06349	    0.93651;
	121	 1	 17.6	 3.9	 0.0	 0.0	 1	    1.02056	  -15.49891	 63.0	 1	    1.07937	    0.92063;
	122	 2	 0.0	 0.0	 0.0	 0.0	 1	    1.04621	   -8.73125	 63.0	 1	    1.07937	    0.95238;
	123	 1	 9.0	 2.6	 0.0	 0.0	 1	    1.04345	   -8.88062	 63.0	 1	    1.07937	    0.95238;
	124	 1	 8.0	 -0.9	 0.0	 0.0	 1	    1.04126	  -14.09804	 90.0	 1	    1.06667	    0.97778;
	125	 1	 10.5	 -0.5	 0.0	 0.0	 1	    1.06565	   -5.17401	 63.0	 1	    1.07937	    0.95238;
	126	 1	 0.3	 -0.1	 0.0	 0.0	 1	    1.04699	  -10.76668	 63.0	 1	    1.06349	    0.93651;
	127	 1	 7.8	 1.5	 0.0	 0.0	 1	    1.03673	  -14.83703	 63.0	 1	    1.04762	    0.95238;
	128	 1	 11.8	 7.6	 0.0	 0.0	 1	    1.04837	   -7.75160	 63.0	 1	    1.06349	    0.96825;
	129	 1	 16.7	 11.8	 0.0	 0.0	 1	    1.05031	   -6.63942	 63.0	 1	    1.06349	    0.96825;
	130	 1	 0.0	 0.0	 0.0	 0.0	 1	    1.07492	   -5.79260	 225.0	 1	    1.08444	    1.00889;
	131	 1	 103.0	 13.6	 0.0	 0.0	 1	    1.05858	  -10.52181	 225.0	 1	    1.08444	    1.00889;
	132	 2	 11.5	 0.0	 0.0	 0.0	 1	    1.06367	   -8.59845	 90.0	 1	    1.07778	    0.92222;
	133	 1	 2.1	 0.5	 0.0	 0.0	 1	    1.02696	  -15.55394	 63.0	 1	    1.04762	    0.95238;
	134	 1	 83.5	 23.6	 0.0	 0.0	 1	    1.07071	  -13.00215	 225.0	 1	    1.08889	    1.00444;
	135	 1	 0.0	 0.0	 0.0	 0.0	 1	    1.07749	  -14.36457	 225.0	 1	    1.08889	    1.00444;
	136	 1	 21.9	 -0.2	 0.0	 0.0	 1	    1.05724	  -19.83980	 90.0	 1	    1.07778	    0.97778;
	137	 2	 9.6	 -4.4	 0.0	 0.0	 1	    1.05138	  -10.08263	 63.0	 1	    1.06349	    0.96825;
	138	 1	 0.0	 0.0	 0.0	 0.0	 1	    1.05923	   -9.16462	 150.0	 1	    1.08000	    0.96667;
	139	 1	 15.7	 2.2	 0.0	 0.0	 1	    1.05127	  -12.73784	 63.0	 1	    1.07937	    0.92063;
	140	 1	 0.0	 0.0	 0.0	 80.0	 1	    1.08267	   -9.63032	 225.0	 1	    1.08889	    1.00000;
	141	 1	 0.0	 0.0	 0.0	 0.0	 1	    1.08738	   -6.42487	 380.0	 1	    1.10526	    1.05263;
	142	 1	 14.8	 5.8	 0.0	 0.0	 1	    1.02835	  -12.34509	 63.0	 1	    1.07937	    0.95238;
	143	 1	 0.0	 0.0	 0.0	 0.0	 1	    1.07569	   -8.34740	 225.0	 1	    1.08889	    0.98667;
	144	 1	 23.3	 -10.3	 0.0	 0.0	 1	    1.05569	   -6.83589	 90.0	 1	    1.11111	    0.95556;
	145	 1	 27.6	 5.9	 0.0	 0.0	 1	    1.08618	   -3.84494	 225.0	 1	    1.08889	    0.96889;
	146	 1	 0.0	 0.0	 0.0	 0.0	 1	    1.08903	   -1.88385	 380.0	 1	    1.10526	    1.00000;
	147	 1	 29.0	 5.5	 0.0	 0.0	 1	    1.05839	  -15.06439	 63.0	 1	    1.06349	    0.93651;
	148	 1	 6.7	 2.4	 0.0	 0.0	 1	    1.04591	  -12.02561	 63.0	 1	    1.06349	    0.93651;
	149	 1	 17.9	 6.1	 0.0	 0.0	 1	    1.04624	  -19.32778	 90.0	 1	    1.06667	    0.97778;
	150	 1	 44.5	 6.4	 0.0	 0.0	 1	    1.05411	  -10.58262	 63.0	 1	    1.06349	    0.93651;
	151	 1	 0.0	 0.0	 0.0	 0.0	 1	    1.01179	  -17.96448	 63.0	 1	    1.06349	    0.96825;
	152	 1	 38.3	 8.8	 0.0	 7.7	 1	    1.01174	  -16.71140	 63.0	 1	    1.06349	    0.96825;
	153	 1	 23.2	 -2.6	 0.0	 0.0	 1	    1.04688	  -12.06028	 63.0	 1	    1.06349	    0.93651;
	154	 1	 0.0	 0.0	 0.0	 0.0	 1	    1.07341	   -9.04568	 225.0	 1	    1.08889	    0.93333;
	155	 2	 0.0	 0.0	 0.0	 0.0	 1	    1.01854	  -13.41602	 63.0	 1	    1.07937	    0.92063;
	156	 1	 0.0	 0.0	 0.0	 0.0	 1	    1.01175	  -17.96983	 63.0	 1	    1.06349	    0.96825;
	157	 1	 0.3	 3.1	 0.0	 0.0	 1	    0.94720	  -10.48618	 45.0	 1	    1.00000	    0.88889;
	158	 2	 0.0	 0.0	 0.0	 0.0	 1	    0.97632	  -10.22694	 45.0	 1	    1.00000	    0.88889;
	159	 1	 0.0	 0.0	 0.0	 0.0	 1	    1.04538	  -12.97324	 63.0	 1	    1.06349	    0.93651;
	160	 1	 35.2	 5.6	 0.0	 0.0	 1	    1.06998	   -5.53955	 225.0	 1	    1.08889	    0.88889;
	161	 1	 38.2	 8.7	 0.0	 0.0	 1	    1.06984	   -5.54553	 225.0	 1	    1.08889	    0.88889;
	162	 1	 0.7	 -1.4	 0.0	 0.0	 1	    1.04189	   -6.77741	 90.0	 1	    1.06667	    0.97778;
	163	 1	 0.0	 0.0	 0.0	 0.0	 1	    1.04080	   -8.78774	 63.0	 1	    1.07937	    0.95238;
	164	 1	 0.0	 0.0	 0.0	 0.0	 1	    1.04080	   -8.78774	 63.0	 1	    1.07937	    0.95238;
	165	 1	 16.7	 9.2	 0.0	 0.0	 1	    1.07293	  -14.35487	 20.0	 1	    1.15000	    0.80000;
	166	 1	 10.1	 2.4	 0.0	 0.0	 1	    1.04531	  -18.66329	 90.0	 1	    1.06667	    0.97778;
	167	 1	 13.6	 0.6	 0.0	 0.0	 1	    1.03774	  -19.01330	 90.0	 1	    1.06667	    0.97778;
	168	 1	 0.0	 0.0	 0.0	 0.0	 1	    1.07301	  -14.34828	 225.0	 1	    1.08444	    1.00444;
	169	 1	 10.8	 -1.0	 0.0	 0.0	 1	    1.03020	  -16.65848	 90.0	 1	    1.06667	    0.97778;
	170	 1	 70.4	 11.6	 0.0	 0.0	 1	    1.05629	  -15.92390	 90.0	 1	    1.07778	    0.97778;
	171	 1	 26.5	 -0.4	 0.0	 0.0	 1	    1.05353	  -18.12031	 90.0	 1	    1.07778	    0.97778;
	172	 1	 0.0	 0.0	 0.0	 0.0	 1	    1.07186	  -14.47569	 225.0	 1	    1.08889	    1.00444;
	173	 1	 27.7	 8.5	 0.0	 0.0	 1	    1.08082	   -6.05176	 90.0	 1	    1.08889	    0.93333;
	174	 1	 47.4	 4.6	 0.0	 0.0	 1	    1.07341	  -10.98034	 90.0	 1	    1.11111	    0.95556;
	175	 1	 0.0	 0.0	 0.0	 0.0	 1	    1.03583	  -11.68734	 63.0	 1	    1.07937	    0.92063;
	176	 1	 0.0	 0.0	 0.0	 0.0	 1	    1.03482	  -10.49434	 63.0	 1	    1.07937	    0.92063;
	177	 2	 0.0	 0.0	 0.0	 0.0	 1	    1.08807	   -8.01566	 150.0	 1	    1.10000	    0.90000;
	178	 1	 0.0	 0.0	 0.0	 0.0	 1	    1.08826	  -11.90767	 225.0	 1	    1.08889	    1.00444;
	179	 1	 0.0	 0.0	 0.0	 0.0	 1	    1.08826	  -11.90767	 225.0	 1	    1.08889	    1.00444;
	180	 1	 0.0	 0.0	 0.0	 -32.0	 1	    1.00624	  -14.98919	 20.0	 1	    1.15000	    0.80000;
	181	 1	 0.0	 0.0	 0.0	 -32.0	 1	    1.02894	  -14.94321	 20.0	 1	    1.15000	    0.80000;
	182	 1	 0.0	 0.0	 0.0	 0.0	 1	    1.03683	  -14.82991	 63.0	 1	    1.04762	    0.95238;
	183	 1	 0.0	 0.0	 0.0	 0.0	 1	    1.08826	  -11.90767	 225.0	 1	    1.08889	    1.00444;
	184	 1	 12.9	 -4.6	 0.0	 0.0	 1	    1.05082	  -17.86769	 63.0	 1	    1.07937	    0.92063;
	185	 1	 16.0	 3.1	 0.0	 0.0	 1	    1.04620	   -9.64330	 63.0	 1	    1.06349	    0.93651;
	186	 1	 4.8	 -0.4	 0.0	 0.0	 1	    1.03791	  -13.64835	 63.0	 1	    1.07937	    0.95238;
	187	 1	 5.0	 1.4	 0.0	 0.0	 1	    1.06399	   -6.95555	 90.0	 1	    1.07778	    0.97778;
	188	 1	 28.7	 4.0	 0.0	 0.0	 1	    1.01997	  -13.16519	 63.0	 1	    1.07937	    0.95238;
	189	 1	 1.1	 0.3	 0.0	 0.0	 1	    1.03292	   -7.44761	 90.0	 1	    1.06667	    0.97778;
	190	 2	 0.0	 0.0	 0.0	 0.0	 1	    1.04893	  -13.65908	 63.0	 1	    1.07937	    0.92063;
	191	 1	 16.2	 1.6	 0.0	 0.0	 1	    1.02953	  -13.51144	 63.0	 1	    1.07937	    0.92063;
	192	 2	 0.0	 0.0	 0.0	 0.0	 1	    0.96996	   -9.52088	 45.0	 1	    1.00000	    0.88889;
	193	 1	 13.8	 -0.3	 0.0	 0.0	 1	    1.03134	  -16.86920	 90.0	 1	    1.06667	    0.97778;
	194	 1	 7.4	 -1.5	 0.0	 0.0	 1	    1.06246	  -13.43560	 63.0	 1	    1.07937	    0.92063;
	195	 1	 7.9	 4.8	 0.0	 0.0	 1	    1.07697	  -11.89759	 225.0	 1	    1.08889	    1.00444;
	196	 2	 1.0	 -0.3	 0.0	 0.0	 1	    1.05875	  -14.89296	 63.0	 1	    1.07937	    0.92063;
	197	 1	 0.0	 0.0	 0.0	 0.0	 1	    1.09829	  -13.07135	 63.0	 1	    1.09837	    0.95238;
	198	 1	 0.0	 0.0	 0.0	 0.0	 1	    1.09829	  -13.07139	 63.0	 1	    1.09837	    0.95238;
	199	 1	 24.4	 1.2	 0.0	 0.0	 1	    1.05136	  -19.42437	 63.0	 1	    1.07937	    0.92063;
	200	 1	 9.3	 -2.7	 0.0	 0.0	 1	    1.02934	  -14.60374	 63.0	 1	    1.07937	    0.92063;
	201	 1	 12.8	 1.9	 0.0	 0.0	 1	    1.03386	  -23.48581	 90.0	 1	    1.06667	    0.97778;
	202	 1	 0.0	 0.0	 0.0	 0.0	 1	    1.07699	  -12.40979	 225.0	 1	    1.08889	    1.00000;
	203	 1	 73.3	 24.6	 0.0	 0.0	 1	    1.05826	   -7.05097	 225.0	 1	    1.08889	    0.88889;
	204	 1	 41.8	 1.4	 0.0	 0.0	 1	    1.01157	  -20.93188	 63.0	 1	    1.06349	    0.96825;
	205	 1	 17.5	 2.5	 0.0	 0.0	 1	    1.07262	   -3.88528	 90.0	 1	    1.10000	    0.94444;
	206	 1	 0.0	 0.0	 0.0	 0.0	 1	    1.08035	   -0.82887	 225.0	 1	    1.08889	    0.96889;
	207	 1	 0.0	 0.0	 0.0	 0.0	 1	    1.08937	    2.24053	 380.0	 1	    1.10526	    1.00000;
	208	 1	 50.1	 6.8	 0.0	 0.0	 1	    1.01996	  -18.63040	 63.0	 1	    1.06349	    0.96825;
	209	 1	 32.9	 4.1	 0.0	 0.0	 1	    1.02187	   -9.49217	 63.0	 1	    1.06349	    0.96825;
	210	 1	 14.4	 -1.6	 0.0	 0.0	 1	    1.04790	   -9.84905	 90.0	 1	    1.07778	    0.97778;
	211	 1	 2.9	 0.1	 0.0	 0.0	 1	    1.03646	  -13.11643	 63.0	 1	    1.06349	    0.96825;
	212	 1	 40.8	 5.5	 0.0	 0.0	 1	    1.01350	   -9.83416	 63.0	 1	    1.06349	    0.96825;
	213	 1	 31.8	 12.2	 0.0	 0.0	 1	    1.01346	   -9.70149	 63.0	 1	    1.06349	    0.96825;
	214	 1	 0.0	 0.0	 0.0	 0.0	 1	    1.05870	   -9.63708	 225.0	 1	    1.08444	    1.00889;
	215	 1	 0.0	 0.0	 0.0	 0.0	 1	    1.05861	   -9.62519	 225.0	 1	    1.08444	    1.00889;
	216	 1	 37.5	 3.1	 0.0	 30.4	 1	    1.05780	  -17.68766	 90.0	 1	    1.07778	    0.97778;
	217	 1	 0.0	 0.0	 0.0	 0.0	 1	    1.07727	  -14.61596	 225.0	 1	    1.08889	    1.00444;
	218	 1	 20.7	 -2.4	 0.0	 0.0	 1	    1.01252	   -7.21399	 63.0	 1	    1.06349	    0.95238;
	219	 1	 25.0	 3.4	 0.0	 0.0	 1	    1.02070	  -14.18038	 90.0	 1	    1.06667	    0.97778;
	220	 1	 1.6	 -0.1	 0.0	 0.0	 1	    1.04635	   -8.03236	 90.0	 1	    1.06667	    0.97778;
	221	 1	 10.4	 -3.7	 0.0	 0.0	 1	    1.03637	  -16.33989	 90.0	 1	    1.06667	    0.97778;
	222	 1	 11.0	 1.5	 0.0	 0.0	 1	    1.03085	   -3.10838	 63.0	 1	    1.07937	    0.95238;
	223	 1	 14.3	 -8.5	 0.0	 0.0	 1	    1.04088	  -10.01476	 63.0	 1	    1.06349	    0.93651;
	224	 1	 0.0	 0.0	 0.0	 0.0	 1	    1.08902	   -7.25743	 225.0	 1	    1.08902	    0.93333;
	225	 1	 40.8	 2.0	 0.0	 0.0	 1	    1.02545	  -16.15677	 63.0	 1	    1.07937	    0.92063;
	226	 2	 0.0	 0.0	 0.0	 0.0	 1	    1.08803	   -8.01469	 150.0	 1	    1.10000	    0.90000;
	227	 1	 37.6	 6.0	 0.0	 0.0	 1	    1.05988	   -8.89575	 225.0	 1	    1.08444	    1.00889;
	228	 1	 38.6	 44.0	 0.0	 0.0	 1	    1.05928	   -8.89049	 225.0	 1	    1.08444	    1.00889;
	229	 1	 4.0	 0.2	 0.0	 0.0	 1	    1.03599	  -31.27002	 63.0	 1	    1.06349	    0.95238;
	230	 1	 9.9	 -2.0	 0.0	 0.0	 1	    1.03094	  -32.56016	 63.0	 1	    1.06349	    0.95238;
	231	 1	 12.4	 -5.7	 0.0	 0.0	 1	    1.06096	  -13.47610	 63.0	 1	    1.07937	    0.92063;
	232	 1	 0.0	 0.0	 0.0	 0.0	 1	    1.05880	   -9.18654	 225.0	 1	    1.08889	    0.97778;
	233	 1	 6.0	 -2.4	 0.0	 0.0	 1	    1.04362	  -14.54062	 90.0	 1	    1.06667	    0.97778;
	234	 1	 6.4	 1.0	 0.0	 0.0	 1	    1.06213	   -0.93820	 90.0	 1	    1.08889	    0.93333;
	235	 1	 0.0	 0.0	 0.0	 0.0	 1	    1.05765	   -7.84773	 20.0	 1	    1.15000	    0.80000;
	236	 1	 23.9	 8.5	 0.0	 0.0	 1	    1.05765	   -7.84773	 90.0	 1	    1.08889	    0.93333;
	237	 1	 13.7	 3.1	 0.0	 0.0	 1	    1.07099	   -4.52136	 225.0	 1	    1.08889	    0.88889;
	238	 1	 26.6	 1.5	 0.0	 0.0	 1	    1.07082	   -4.64030	 90.0	 1	    1.07778	    0.92222;
	239	 1	 46.2	 6.8	 0.0	 0.0	 1	    1.03393	  -11.24714	 63.0	 1	    1.06349	    0.93651;
	240	 1	 21.4	 -0.9	 0.0	 0.0	 1	    1.04149	   -9.27628	 90.0	 1	    1.06667	    0.97778;
	241	 1	 52.1	 3.6	 0.0	 0.0	 1	    1.00302	  -38.40075	 63.0	 1	    1.06349	    0.95238;
	242	 1	 41.4	 8.3	 0.0	 0.0	 1	    1.02917	  -15.26897	 63.0	 1	    1.07937	    0.92063;
	243	 1	 45.4	 4.4	 0.0	 0.0	 1	    1.02536	  -14.95765	 90.0	 1	    1.07778	    0.92222;
	244	 1	 45.5	 4.8	 0.0	 0.0	 1	    1.01747	  -17.66687	 63.0	 1	    1.06349	    0.96825;
	245	 1	 26.7	 -3.4	 0.0	 0.0	 1	    1.01871	  -19.11492	 63.0	 1	    1.07937	    0.92063;
	246	 1	 53.1	 3.3	 0.0	 0.0	 1	    1.04170	  -11.35876	 90.0	 1	    1.07778	    0.92222;
	247	 1	 12.8	 -2.1	 0.0	 0.0	 1	    1.02375	  -16.32008	 63.0	 1	    1.07937	    0.92063;
	248	 2	 12.3	 4.9	 0.0	 0.0	 1	    1.01509	   -7.88237	 63.0	 1	    1.06349	    0.93651;
	249	 1	 0.0	 0.0	 0.0	 0.0	 1	    1.06982	   -6.49785	 225.0	 1	    1.08889	    0.93333;
	250	 1	 28.9	 9.4	 0.0	 0.0	 1	    1.08313	  -12.41163	 225.0	 1	    1.08889	    1.00444;
	251	 1	 24.0	 -5.3	 0.0	 0.0	 1	    1.04719	  -20.62556	 63.0	 1	    1.07937	    0.92063;
	252	 1	 23.5	 -7.3	 0.0	 0.0	 1	    1.03239	  -16.95763	 63.0	 1	    1.07937	    0.95238;
	253	 1	 6.1	 -0.0	 0.0	 0.0	 1	    1.02720	  -17.17437	 90.0	 1	    1.06667	    0.97778;
	254	 1	 9.5	 -1.6	 0.0	 0.0	 1	    1.03323	   -8.28483	 90.0	 1	    1.06667	    0.97778;
	255	 1	 48.5	 6.8	 0.0	 0.0	 1	    1.04660	  -12.70734	 63.0	 1	    1.07937	    0.95238;
	256	 1	 16.9	 0.4	 0.0	 0.0	 1	    1.04258	  -17.17155	 63.0	 1	    1.07937	    0.95238;
	257	 1	 6.9	 -1.4	 0.0	 0.0	 1	    1.03371	  -11.52580	 63.0	 1	    1.06349	    0.93651;
	258	 2	 4.7	 0.0	 0.0	 0.0	 1	    1.04211	  -12.37896	 63.0	 1	    1.07937	    0.92063;
	259	 1	 0.0	 0.0	 0.0	 0.0	 1	    1.07846	  -12.56384	 225.0	 1	    1.08889	    1.00000;
	260	 2	 -0.0	 0.0	 0.0	 0.0	 1	    1.06628	   -7.24510	 90.0	 1	    1.07778	    0.92222;
	261	 1	 29.7	 1.1	 0.0	 0.0	 1	    1.04692	   -9.53300	 63.0	 1	    1.07937	    0.95238;
	262	 1	 0.0	 0.0	 0.0	 0.0	 1	    1.08268	   -8.26518	 225.0	 1	    1.08889	    0.98667;
	263	 2	 0.0	 0.0	 0.0	 0.0	 1	    1.03823	  -18.49195	 63.0	 1	    1.07937	    0.92063;
	264	 1	 0.0	 0.0	 0.0	 80.0	 1	    1.07564	   -5.47337	 225.0	 1	    1.08889	    0.88889;
	265	 1	 0.0	 0.0	 0.0	 0.0	 1	    1.06477	   -6.19277	 225.0	 1	    1.08889	    0.88889;
	266	 1	 0.0	 0.0	 0.0	 0.0	 1	    1.07643	   -2.97349	 380.0	 1	    1.10526	    1.01316;
	267	 1	 0.0	 0.0	 0.0	 0.0	 1	    1.01956	  -14.55422	 63.0	 1	    1.04762	    0.95238;
	268	 1	 26.3	 6.4	 0.0	 0.0	 1	    1.08085	  -12.23537	 225.0	 1	    1.08889	    1.00444;
	269	 1	 57.3	 10.1	 0.0	 0.0	 1	    1.08759	  -12.33556	 225.0	 1	    1.08889	    1.00444;
	270	 1	 10.5	 9.5	 0.0	 0.0	 1	    1.01173	  -13.29629	 63.0	 1	    1.07937	    0.92063;
	271	 1	 22.7	 2.7	 0.0	 0.0	 1	    1.02154	  -18.97898	 63.0	 1	    1.07937	    0.92063;
	272	 1	 0.0	 0.0	 0.0	 0.0	 1	    1.07103	   -6.66113	 225.0	 1	    1.08889	    0.97778;
	273	 1	 0.0	 0.0	 0.0	 0.0	 1	    1.07102	   -6.66168	 225.0	 1	    1.08889	    0.97778;
	274	 1	 6.7	 7.7	 0.0	 0.0	 1	    1.04448	  -10.56598	 63.0	 1	    1.06349	    0.96825;
	275	 1	 55.4	 0.8	 0.0	 0.0	 1	    1.06809	   -7.31788	 225.0	 1	    1.08444	    1.00889;
	276	 1	 43.8	 8.2	 0.0	 0.0	 1	    1.07217	  -10.76986	 90.0	 1	    1.10000	    0.94444;
	277	 1	 0.0	 0.0	 0.0	 0.0	 1	    1.07600	  -10.38880	 225.0	 1	    1.08444	    1.00444;
	278	 1	 0.0	 0.0	 0.0	 0.0	 1	    1.08373	   -4.85551	 380.0	 1	    1.10263	    1.04211;
	279	 1	 1.8	 4.2	 0.0	 0.0	 1	    1.03365	  -13.44300	 90.0	 1	    1.06667	    0.97778;
	280	 1	 -1.5	 4.3	 0.0	 0.0	 1	    1.07578	  -10.44371	 225.0	 1	    1.08444	    1.00444;
	281	 1	 10.0	 -2.1	 0.0	 0.0	 1	    1.02862	  -22.44502	 63.0	 1	    1.06349	    0.93651;
	282	 1	 48.0	 11.3	 0.0	 0.0	 1	    1.05544	  -15.52472	 90.0	 1	    1.07778	    0.97778;
	283	 1	 12.8	 0.9	 0.0	 0.0	 1	    1.03512	   -9.44367	 63.0	 1	    1.07937	    0.95238;
	284	 2	 0.0	 0.0	 0.0	 0.0	 1	    1.01509	   -7.88238	 63.0	 1	    1.06349	    0.93651;
	285	 1	 10.8	 0.2	 0.0	 0.0	 1	    1.03249	  -19.42150	 90.0	 1	    1.06667	    0.97778;
	286	 1	 14.7	 3.5	 0.0	 0.0	 1	    1.01998	   -1.81295	 63.0	 1	    1.07937	    0.95238;
	287	 1	 1.4	 5.0	 0.0	 0.0	 1	    1.08398	  -12.07397	 225.0	 1	    1.08889	    1.00444;
	288	 1	 19.4	 7.0	 0.0	 0.0	 1	    1.08393	  -12.08301	 225.0	 1	    1.08889	    1.00444;
	289	 1	 25.8	 -4.9	 0.0	 0.0	 1	    1.04723	  -10.86352	 90.0	 1	    1.06667	    0.97778;
	290	 1	 33.5	 -2.7	 0.0	 0.0	 1	    1.03372	  -16.79831	 90.0	 1	    1.06667	    0.97778;
	291	 1	 43.4	 2.2	 0.0	 0.0	 1	    1.08534	   -2.37655	 225.0	 1	    1.08889	    0.88889;
	292	 1	 7.2	 2.9	 0.0	 0.0	 1	    1.08451	   -8.14178	 90.0	 1	    1.11111	    0.95556;
	293	 1	 15.3	 -1.9	 0.0	 0.0	 1	    1.02266	  -17.54667	 63.0	 1	    1.07937	    0.92063;
	294	 1	 0.0	 0.4	 0.0	 0.0	 1	    1.03690	  -13.07401	 63.0	 1	    1.06349	    0.93651;
	295	 1	 42.0	 5.2	 0.0	 0.0	 1	    1.03692	  -13.07436	 63.0	 1	    1.06349	    0.93651;
	296	 1	 0.0	 -0.9	 0.0	 0.0	 1	    1.02559	  -13.65995	 63.0	 1	    1.07937	    0.95238;
	297	 1	 19.9	 2.7	 0.0	 0.0	 1	    1.07132	   -5.81480	 225.0	 1	    1.08889	    0.88889;
	298	 1	 7.7	 -0.1	 0.0	 0.0	 1	    1.02915	  -14.23392	 63.0	 1	    1.07937	    0.95238;
	299	 1	 5.0	 0.5	 0.0	 0.0	 1	    1.01172	  -17.49803	 63.0	 1	    1.06349	    0.93651;
	300	 1	 10.0	 0.0	 0.0	 0.0	 1	    1.02691	   -8.82128	 63.0	 1	    1.06349	    0.93651;
	301	 1	 0.0	 0.1	 0.0	 0.0	 1	    1.07606	   -2.89036	 90.0	 1	    1.11111	    0.95556;
	302	 1	 53.3	 18.6	 0.0	 0.0	 1	    1.07442	   -0.74009	 225.0	 1	    1.08889	    0.88889;
	303	 1	 2.9	 0.4	 0.0	 0.0	 1	    1.02338	  -10.02870	 63.0	 1	    1.06349	    0.96825;
	304	 1	 12.3	 2.0	 0.0	 0.0	 1	    1.03425	  -10.62664	 63.0	 1	    1.06349	    0.93651;
	305	 1	 33.3	 6.1	 0.0	 0.0	 1	    1.04264	  -20.29060	 63.0	 1	    1.07937	    0.92063;
	306	 1	 30.8	 -4.2	 0.0	 0.0	 1	    1.02803	  -18.26765	 63.0	 1	    1.06349	    0.96825;
	307	 2	 0.0	 0.0	 0.0	 0.0	 1	    1.06320	  -11.42359	 63.0	 1	    1.06349	    0.93651;
	308	 1	 14.0	 -0.3	 0.0	 0.0	 1	    1.03228	   -9.96823	 63.0	 1	    1.07937	    0.95238;
	309	 1	 21.3	 -2.9	 0.0	 0.0	 1	    1.01832	  -24.00340	 90.0	 1	    1.06667	    0.97778;
	310	 1	 0.5	 -0.0	 0.0	 0.0	 1	    1.03775	  -17.12463	 63.0	 1	    1.07937	    0.92063;
	311	 1	 9.0	 2.5	 0.0	 0.0	 1	    1.04598	  -20.76866	 63.0	 1	    1.06349	    0.96825;
	312	 1	 14.0	 4.5	 0.0	 0.0	 1	    1.04624	  -20.79027	 63.0	 1	    1.06349	    0.96825;
	313	 1	 0.7	 -0.3	 0.0	 0.0	 1	    1.02107	  -15.56824	 90.0	 1	    1.06667	    0.97778;
	314	 1	 8.0	 -2.5	 0.0	 0.0	 1	    1.03870	   -1.73916	 90.0	 1	    1.07778	    0.92222;
	315	 1	 28.8	 2.9	 0.0	 0.0	 1	    1.03086	  -11.87149	 63.0	 1	    1.07937	    0.92063;
	316	 1	 0.0	 0.0	 0.0	 0.0	 1	    1.06049	   -8.23167	 225.0	 1	    1.08889	    1.00000;
	317	 1	 21.2	 -1.2	 0.0	 0.0	 1	    1.06301	   -7.14633	 90.0	 1	    1.07778	    0.97778;
	318	 1	 32.2	 7.0	 0.0	 0.0	 1	    1.04001	  -15.75291	 63.0	 1	    1.07937	    0.92063;
	319	 2	 3.0	 0.0	 0.0	 0.0	 1	    1.06263	  -13.99592	 63.0	 1	    1.07937	    0.92063;
	320	 1	 13.5	 4.9	 0.0	 0.0	 1	    1.00598	  -16.40755	 63.0	 1	    1.04762	    0.95238;
	321	 2	 0.0	 0.0	 0.0	 0.0	 1	    1.05182	  -18.64059	 63.0	 1	    1.07937	    0.92063;
	322	 1	 31.1	 4.0	 0.0	 0.0	 1	    1.07186	   -8.84917	 90.0	 1	    1.10000	    0.94444;
	323	 1	 0.0	 0.0	 0.0	 0.0	 1	    1.07145	  -15.53155	 63.0	 1	    1.07937	    0.92063;
	324	 1	 0.0	 0.0	 0.0	 0.0	 1	    1.05868	   -8.56881	 225.0	 1	    1.08889	    1.00000;
	325	 1	 0.0	 0.0	 0.0	 0.0	 1	    1.09829	   -8.59369	 380.0	 1	    1.10526	    1.05263;