%%%%%%%%%%%%%%%%%%%%%%%%%%%%%%%%%%%%%%%%%%%%%%%%%%%%%%%%%%%%%%%%%%%%%%%%%%%
%%%%                                                                  %%%%%
%%%%    IEEE PES Power Grid Library - Optimal Power Flow - v17.07     %%%%%
%%%%          (https://github.com/power-grid-lib/pglib-opf)           %%%%%
%%%%             Benchmark Group - Small Angle Difference             %%%%%
%%%%                         27 - June - 2017                         %%%%%
%%%%                                                                  %%%%%
%%%%%%%%%%%%%%%%%%%%%%%%%%%%%%%%%%%%%%%%%%%%%%%%%%%%%%%%%%%%%%%%%%%%%%%%%%%
function mpc = pglib_opf_case2868_rte__sad
mpc.version = '2';
mpc.baseMVA = 100.0;

%% bus data
%	bus_i	type	Pd	Qd	Gs	Bs	area	Vm	Va	baseKV	zone	Vmax	Vmin
mpc.bus = [
	1	 1	 -18.5	 0.0	 0.0	 0.0	 1	    1.04567	  -12.01142	 63.0	 1	    1.06349	    0.93651;
	2	 1	 11.8	 0.6	 0.0	 0.0	 1	    1.07989	  -12.42290	 225.0	 1	    1.08889	    0.88889;
	3	 1	 0.0	 0.0	 0.0	 0.0	 1	    1.09363	   -1.26157	 380.0	 1	    1.10263	    1.00000;
	4	 1	 0.0	 0.0	 0.0	 0.0	 1	    1.03827	  -12.48259	 63.0	 1	    1.07937	    0.92063;
	5	 1	 0.2	 -0.2	 0.0	 0.0	 1	    0.94418	   -6.89661	 45.0	 1	    1.00000	    0.88889;
	6	 1	 5.6	 -19.0	 0.0	 0.0	 1	    0.94493	   -6.93295	 45.0	 1	    1.00000	    0.88889;
	7	 1	 223.6	 7.6	 0.0	 0.0	 1	    1.07893	   -9.00694	 225.0	 1	    1.08444	    1.00000;
	8	 1	 68.6	 7.6	 0.0	 0.0	 1	    1.02812	  -13.66565	 63.0	 1	    1.06349	    0.96825;
	10	 1	 0.0	 0.0	 0.0	 0.0	 1	    1.06288	   -5.56206	 150.0	 1	    1.10667	    0.90000;
	11	 1	 49.1	 0.9	 0.0	 0.0	 1	    1.07169	   -6.49318	 225.0	 1	    1.08889	    0.93333;
	2571	 1	 34.0	 14.4	 0.0	 0.0	 1	    1.07413	   -7.57768	 225.0	 1	    1.08889	    0.93333;
	12	 1	 0.0	 0.0	 0.0	 0.0	 1	    1.08569	   -6.77293	 380.0	 1	    1.10526	    1.00000;
	2572	 1	 0.0	 0.0	 0.0	 0.0	 1	    1.09045	   -6.94817	 380.0	 1	    1.10526	    1.00000;
	13	 1	 0.0	 0.0	 0.0	 0.0	 1	    1.08029	  -17.34797	 225.0	 1	    1.09067	    1.00000;
	14	 1	 0.2	 -1.1	 0.0	 0.0	 1	    1.01156	  -17.05083	 63.0	 1	    1.06349	    0.93651;
	15	 1	 10.3	 -0.2	 0.0	 0.0	 1	    1.02840	  -14.17260	 63.0	 1	    1.06349	    0.93651;
	16	 1	 189.8	 54.4	 0.0	 0.0	 1	    1.06331	  -11.88714	 225.0	 1	    1.08889	    0.93333;
	17	 1	 54.5	 13.1	 0.0	 0.0	 1	    1.08781	  -18.69766	 225.0	 1	    1.08889	    1.00000;
	18	 1	 67.6	 23.2	 0.0	 0.0	 1	    1.08341	  -15.94722	 225.0	 1	    1.08962	    1.00000;
	19	 2	 0.0	 0.0	 0.0	 0.0	 1	    1.06826	   -7.11693	 63.0	 1	    1.08661	    0.92063;
	20	 1	 150.5	 40.0	 0.0	 0.0	 1	    1.08758	  -18.69836	 225.0	 1	    1.08889	    1.00000;
	21	 1	 78.1	 6.2	 0.0	 0.0	 1	    1.08719	   -9.46560	 225.0	 1	    1.08889	    0.88889;
	22	 1	 15.0	 -9.4	 0.0	 0.0	 1	    1.01918	  -20.85254	 63.0	 1	    1.07249	    0.93651;
	23	 1	 50.9	 6.0	 0.0	 0.0	 1	    1.01484	  -15.90803	 63.0	 1	    1.06349	    0.93651;
	24	 1	 0.0	 0.0	 0.0	 0.0	 1	    1.08889	   -5.84201	 225.0	 1	    1.08889	    1.00000;
	2573	 1	 0.0	 0.0	 0.0	 0.0	 1	    1.08889	   -5.84201	 225.0	 1	    1.08889	    1.00000;
	25	 1	 65.1	 1.6	 0.0	 0.0	 1	    1.08727	   -9.51396	 225.0	 1	    1.08889	    0.88889;
	26	 1	 1.6	 -4.2	 0.0	 0.0	 1	    1.07902	   -6.98062	 225.0	 1	    1.09649	    0.98667;
	27	 1	 42.8	 2.3	 0.0	 0.0	 1	    1.02859	  -16.23587	 63.0	 1	    1.06349	    0.93651;
	28	 1	 39.4	 15.5	 0.0	 0.0	 1	    1.07194	  -18.12144	 225.0	 1	    1.08889	    1.00000;
	2574	 1	 42.2	 12.4	 0.0	 0.0	 1	    1.07192	  -18.12178	 225.0	 1	    1.08889	    1.00000;
	29	 1	 11.4	 0.5	 0.0	 0.0	 1	    1.02795	  -13.78517	 63.0	 1	    1.06349	    0.93651;
	30	 1	 72.7	 36.5	 0.0	 0.0	 1	    1.07476	  -14.91129	 225.0	 1	    1.08889	    1.00000;
	31	 1	 2.7	 -1.4	 0.0	 0.0	 1	    1.05448	   -8.96026	 63.0	 1	    1.07211	    0.93651;
	32	 1	 13.8	 -0.4	 0.0	 0.0	 1	    1.04189	  -15.09601	 63.0	 1	    1.06349	    0.93651;
	33	 1	 2.0	 -0.5	 0.0	 0.0	 1	    0.94378	   -7.34757	 45.0	 1	    1.00000	    0.88889;
	34	 1	 0.4	 0.0	 0.0	 0.0	 1	    0.94392	   -6.92652	 45.0	 1	    1.00000	    0.88889;
	35	 1	 30.4	 3.0	 0.0	 0.0	 1	    1.03146	  -14.31102	 63.0	 1	    1.06349	    0.96825;
	36	 1	 1.9	 -3.1	 0.0	 0.0	 1	    1.00000	   -8.28257	 45.0	 1	    1.00000	    0.88889;
	37	 1	 18.9	 0.9	 0.0	 0.0	 1	    1.05034	  -13.16338	 63.0	 1	    1.06349	    0.93651;
	38	 2	 0.0	 0.0	 0.0	 0.0	 1	    1.03314	   -5.95956	 63.0	 1	    1.07937	    0.95238;
	39	 1	 99.3	 18.8	 0.0	 0.0	 1	    1.07814	  -12.80487	 225.0	 1	    1.08934	    0.98667;
	40	 1	 38.7	 0.9	 0.0	 0.0	 1	    1.07283	  -11.97052	 225.0	 1	    1.08889	    0.88889;
	41	 1	 89.8	 13.0	 0.0	 0.0	 1	    1.08252	  -22.53331	 225.0	 1	    1.08444	    1.00000;
	42	 1	 63.9	 9.7	 0.0	 0.0	 1	    1.04420	  -11.29497	 63.0	 1	    1.06370	    0.93651;
	43	 1	 0.0	 0.0	 0.0	 0.0	 1	    1.05738	   -9.03503	 225.0	 1	    1.08889	    0.93333;
	44	 1	 33.1	 -6.5	 0.0	 0.0	 1	    1.03359	  -15.71233	 63.0	 1	    1.06349	    0.96825;
	45	 1	 168.4	 34.9	 0.0	 0.0	 1	    1.07400	  -15.40613	 225.0	 1	    1.08889	    1.00000;
	46	 1	 0.0	 0.0	 0.0	 0.0	 1	    1.09372	   -1.21923	 380.0	 1	    1.10526	    1.00000;
	2575	 1	 0.0	 0.0	 0.0	 0.0	 1	    1.09368	   -1.24638	 380.0	 1	    1.10526	    1.00000;
	47	 1	 29.5	 4.5	 0.0	 0.0	 1	    1.04042	   -9.45644	 63.0	 1	    1.06606	    0.93651;
	48	 1	 1.6	 0.0	 0.0	 0.0	 1	    1.05308	   -9.53007	 63.0	 1	    1.06735	    0.93651;
	49	 1	 14.9	 10.4	 0.0	 0.0	 1	    1.04365	   -8.64038	 63.0	 1	    1.06349	    0.96825;
	2576	 1	 9.9	 7.2	 0.0	 0.0	 1	    1.04400	   -9.05018	 63.0	 1	    1.06349	    0.96825;
	50	 1	 0.0	 0.0	 0.0	 0.0	 1	    1.08008	   -5.68529	 225.0	 1	    1.08444	    1.00000;
	51	 1	 114.9	 20.2	 0.0	 0.0	 1	    1.08181	   -9.02672	 225.0	 1	    1.08444	    1.00000;
	52	 1	 0.0	 0.0	 0.0	 0.0	 1	    1.08884	  -18.52739	 225.0	 1	    1.08889	    1.00000;
	2942	 1	 106.0	 29.6	 0.0	 0.0	 1	    1.05150	  -18.67829	 225.0	 1	    1.08889	    1.00000;
	53	 2	 5.7	 -6.6	 0.0	 0.0	 1	    1.02929	  -12.16307	 63.0	 1	    1.06349	    0.96825;
	54	 1	 0.0	 0.0	 0.0	 0.0	 1	    1.06242	  -10.40519	 150.0	 1	    1.08000	    0.96667;
	55	 1	 65.6	 18.0	 0.0	 80.0	 1	    1.05971	   -4.02685	 225.0	 1	    1.09459	    1.00000;
	56	 1	 0.0	 0.0	 0.0	 0.0	 1	    1.07142	   -1.51764	 380.0	 1	    1.10526	    1.00000;
	57	 1	 146.4	 39.1	 0.0	 0.0	 1	    1.06979	  -15.76898	 225.0	 1	    1.08889	    0.98667;
	59	 1	 78.7	 21.1	 0.0	 0.0	 1	    1.08812	   -9.28105	 225.0	 1	    1.08889	    0.96889;
	60	 1	 125.2	 37.6	 0.0	 0.0	 1	    1.09283	   -6.99868	 380.0	 1	    1.10526	    1.00000;
	61	 1	 6.0	 1.0	 0.0	 0.0	 1	    1.04597	  -12.82499	 63.0	 1	    1.06349	    0.93651;
	63	 1	 36.1	 4.7	 0.0	 7.7	 1	    1.01649	  -13.22315	 63.0	 1	    1.06349	    0.96825;
	2577	 1	 0.0	 0.0	 0.0	 0.0	 1	    1.01640	  -14.47407	 63.0	 1	    1.06349	    0.96825;
	64	 1	 53.3	 13.4	 0.0	 0.0	 1	    1.08237	   -9.79643	 225.0	 1	    1.08889	    0.93333;
	65	 1	 0.0	 0.0	 0.0	 0.0	 1	    1.01637	  -14.48002	 63.0	 1	    1.06349	    0.96825;
	66	 1	 43.4	 -0.7	 0.0	 0.0	 1	    0.91961	   -9.78588	 45.0	 1	    1.00000	    0.88889;
	2578	 2	 0.0	 0.0	 0.0	 0.0	 1	    0.99239	   -8.68383	 45.0	 1	    1.00000	    0.88889;
	67	 1	 41.3	 12.8	 0.0	 0.0	 1	    1.07724	  -10.99625	 225.0	 1	    1.08889	    0.88889;
	2579	 1	 38.5	 8.5	 0.0	 0.0	 1	    1.07743	  -10.99109	 225.0	 1	    1.08889	    0.88889;
	68	 1	 19.6	 3.7	 0.0	 0.0	 1	    1.07555	  -14.89887	 20.0	 1	    1.20000	    0.80000;
	69	 1	 320.7	 74.9	 0.0	 0.0	 1	    1.07560	  -14.89090	 225.0	 1	    1.08685	    1.00000;
	70	 1	 140.9	 -22.3	 0.0	 0.0	 1	    1.08030	  -16.46562	 225.0	 1	    1.08889	    1.00000;
	71	 2	 0.0	 0.0	 0.0	 0.0	 1	    1.10181	   -5.89322	 150.0	 1	    1.10885	    0.90000;
	72	 1	 0.0	 0.0	 0.0	 0.0	 1	    1.08830	  -17.98685	 225.0	 1	    1.08889	    1.00000;
	2580	 1	 0.0	 0.0	 0.0	 0.0	 1	    1.08830	  -17.98685	 225.0	 1	    1.08889	    1.00000;
	74	 1	 0.0	 0.0	 0.0	 0.0	 1	    1.08830	  -17.98685	 225.0	 1	    1.08889	    1.00000;
	75	 1	 15.6	 3.0	 0.0	 0.0	 1	    1.04180	  -10.52989	 63.0	 1	    1.06349	    0.93651;
	76	 2	 0.0	 0.0	 0.0	 0.0	 1	    0.95535	   -6.75736	 45.0	 1	    1.00000	    0.88889;
	77	 1	 6.4	 0.3	 0.0	 0.0	 1	    1.06974	   -7.15117	 63.0	 1	    1.08481	    0.92063;
	78	 1	 4.8	 2.4	 0.0	 0.0	 1	    1.07401	  -15.94863	 225.0	 1	    1.08889	    1.00000;
	79	 1	 17.4	 1.7	 0.0	 15.0	 1	    1.05431	  -20.08994	 63.0	 1	    1.07937	    0.92063;
	80	 1	 10.0	 -0.6	 0.0	 0.0	 1	    1.01125	  -13.61917	 63.0	 1	    1.08744	    0.92063;
	81	 1	 0.0	 0.0	 0.0	 0.0	 1	    1.07646	  -10.42341	 225.0	 1	    1.08889	    1.00000;
	82	 1	 63.1	 25.3	 0.0	 0.0	 1	    1.07088	  -12.22407	 225.0	 1	    1.08889	    0.88889;
	83	 1	 44.1	 1.9	 0.0	 0.0	 1	    1.01218	  -20.02374	 63.0	 1	    1.06349	    0.96740;
	84	 1	 162.3	 51.1	 0.0	 0.0	 1	    1.07613	   -7.78364	 225.0	 1	    1.08889	    0.96889;
	85	 1	 0.0	 0.0	 0.0	 0.0	 1	    1.09023	   -4.59286	 380.0	 1	    1.10526	    1.00000;
	86	 1	 58.3	 14.1	 0.0	 0.0	 1	    1.02102	  -17.50390	 63.0	 1	    1.06349	    0.96825;
	87	 1	 32.5	 4.6	 0.0	 0.0	 1	    1.01647	  -10.57386	 63.0	 1	    1.06349	    0.96825;
	88	 1	 1.5	 0.7	 0.0	 0.0	 1	    1.03119	  -10.95061	 63.0	 1	    1.06349	    0.96825;
	89	 1	 55.7	 8.3	 0.0	 0.0	 1	    1.02764	   -8.25110	 63.0	 1	    1.06349	    0.96825;
	2581	 1	 30.1	 12.2	 0.0	 0.0	 1	    1.02800	   -8.03031	 63.0	 1	    1.06349	    0.96825;
	90	 1	 0.0	 0.0	 0.0	 0.0	 1	    1.07379	   -7.96016	 225.0	 1	    1.08444	    1.00000;
	2582	 1	 0.0	 0.0	 0.0	 0.0	 1	    1.07373	   -7.98957	 225.0	 1	    1.08444	    1.00000;
	91	 1	 190.1	 8.0	 0.0	 0.0	 1	    1.07037	  -16.95401	 225.0	 1	    1.08889	    1.00000;
	92	 1	 36.8	 -8.5	 0.0	 0.0	 1	    1.08045	   -7.40142	 225.0	 1	    1.09041	    0.93333;
	93	 2	 0.0	 0.0	 0.0	 0.0	 1	    1.10138	   -5.98987	 150.0	 1	    1.10907	    0.90000;
	94	 1	 35.7	 55.7	 0.0	 0.0	 1	    1.08239	   -5.09378	 225.0	 1	    1.08444	    1.00000;
	2583	 1	 34.0	 3.2	 0.0	 0.0	 1	    1.08321	   -5.10047	 225.0	 1	    1.08444	    1.00000;
	95	 1	 0.0	 0.0	 0.0	 0.0	 1	    1.08450	   -5.61493	 225.0	 1	    1.08889	    0.97778;
	96	 1	 15.9	 4.1	 0.0	 0.0	 1	    1.08043	  -11.02415	 225.0	 1	    1.08889	    0.88889;
	97	 1	 40.4	 6.5	 0.0	 0.0	 1	    1.02393	  -15.23539	 63.0	 1	    1.06349	    0.96825;
	98	 1	 -3.5	 -1.6	 0.0	 0.0	 1	    1.07230	   -5.55221	 225.0	 1	    1.08889	    0.93333;
	99	 1	 18.2	 5.5	 0.0	 0.0	 1	    1.08034	  -17.38374	 225.0	 1	    1.08889	    1.00000;
	2584	 1	 33.2	 14.1	 0.0	 0.0	 1	    1.08234	  -16.19485	 225.0	 1	    1.08889	    1.00000;
	100	 1	 -17.2	 -4.3	 0.0	 0.0	 1	    1.07569	  -10.73582	 225.0	 1	    1.08889	    1.00000;
	101	 1	 24.4	 1.9	 0.0	 0.0	 1	    1.08535	  -11.51187	 225.0	 1	    1.08889	    0.98667;
	102	 1	 0.0	 0.0	 0.0	 80.0	 1	    1.08584	  -10.77047	 225.0	 1	    1.08889	    0.88889;
	2585	 1	 0.0	 0.0	 0.0	 0.0	 1	    1.07548	  -11.39511	 225.0	 1	    1.08889	    0.88889;
	103	 1	 0.0	 0.0	 0.0	 0.0	 1	    1.08707	   -7.53846	 380.0	 1	    1.10526	    1.00000;
	104	 1	 74.9	 14.3	 0.0	 0.0	 1	    1.07065	  -18.33843	 225.0	 1	    1.08889	    1.00000;
	2586	 1	 29.0	 6.8	 0.0	 0.0	 1	    1.08522	  -16.87839	 225.0	 1	    1.08889	    1.00000;
	105	 1	 11.4	 9.2	 0.0	 0.0	 1	    1.01796	  -12.24061	 63.0	 1	    1.07937	    0.92063;
	106	 1	 0.0	 0.0	 0.0	 0.0	 1	    1.07200	   -6.37416	 225.0	 1	    1.08889	    0.97778;
	2587	 1	 0.0	 0.0	 0.0	 0.0	 1	    1.07201	   -6.37336	 225.0	 1	    1.08889	    0.97778;
	107	 1	 5.7	 10.3	 0.0	 0.0	 1	    1.04299	  -10.58221	 63.0	 1	    1.06349	    0.96825;
	108	 1	 54.1	 1.9	 0.0	 0.0	 1	    1.07037	   -7.01509	 225.0	 1	    1.08444	    1.00000;
	109	 1	 0.0	 0.0	 0.0	 0.0	 1	    1.08229	  -10.65230	 225.0	 1	    1.08444	    1.00000;
	110	 1	 0.0	 0.0	 0.0	 0.0	 1	    1.09504	   -4.83714	 380.0	 1	    1.10263	    1.00000;
	111	 1	 103.3	 18.0	 0.0	 0.0	 1	    1.08202	  -10.70975	 225.0	 1	    1.08444	    1.00000;
	112	 1	 -1.5	 2.2	 0.0	 0.0	 1	    1.08440	  -15.78550	 225.0	 1	    1.09035	    1.00000;
	2588	 1	 16.5	 -0.1	 0.0	 0.0	 1	    1.08436	  -15.79512	 225.0	 1	    1.09035	    1.00000;
	113	 1	 47.0	 9.8	 0.0	 0.0	 1	    1.08455	   -7.59362	 225.0	 1	    1.08889	    0.88889;
	114	 1	 43.8	 0.6	 0.0	 0.0	 1	    1.03868	  -13.96676	 63.0	 1	    1.06349	    0.93651;
	115	 1	 16.4	 1.2	 0.0	 0.0	 1	    1.07957	  -10.94173	 225.0	 1	    1.08889	    0.88889;
	116	 1	 56.9	 18.9	 0.0	 0.0	 1	    1.08045	   -7.45895	 225.0	 1	    1.08889	    0.88889;
	117	 1	 3.2	 0.4	 0.0	 0.0	 1	    1.03265	  -11.46656	 63.0	 1	    1.06349	    0.96825;
	118	 1	 44.0	 10.0	 0.0	 0.0	 1	    1.03210	  -22.28516	 63.0	 1	    1.07937	    0.92063;
	119	 1	 28.5	 -5.1	 0.0	 0.0	 1	    1.03860	  -17.09884	 63.0	 1	    1.06349	    0.96825;
	120	 2	 0.0	 0.0	 0.0	 0.0	 1	    1.03471	  -11.18799	 63.0	 1	    1.06863	    0.93651;
	121	 1	 8.5	 3.1	 0.0	 0.0	 1	    1.04184	  -20.47090	 63.0	 1	    1.06349	    0.96825;
	2589	 1	 15.0	 6.8	 0.0	 0.0	 1	    1.04190	  -20.50144	 63.0	 1	    1.06349	    0.96825;
	122	 1	 142.7	 -26.6	 0.0	 0.0	 1	    1.07910	   -9.30503	 225.0	 1	    1.08889	    1.00000;
	123	 1	 32.4	 7.9	 0.0	 0.0	 1	    1.05297	  -15.75926	 63.0	 1	    1.07937	    0.92063;
	124	 2	 4.7	 -2.0	 0.0	 0.0	 1	    1.06968	   -7.54229	 63.0	 1	    1.08203	    0.92063;
	125	 1	 0.0	 0.0	 0.0	 0.0	 1	    1.07626	  -14.63779	 63.0	 1	    1.07937	    0.92063;
	126	 1	 0.0	 0.0	 0.0	 0.0	 1	    1.05040	   -8.18376	 225.0	 1	    1.08889	    1.00000;
	127	 1	 0.0	 0.0	 0.0	 0.0	 1	    1.08984	   -8.19745	 380.0	 1	    1.10526	    1.00000;
	128	 1	 26.4	 3.8	 0.0	 0.0	 1	    1.04244	  -12.41958	 63.0	 1	    1.06349	    0.93651;
	129	 2	 16.3	 7.5	 0.0	 0.0	 1	    1.04024	  -13.61504	 63.0	 1	    1.06349	    0.93651;
	130	 1	 10.9	 16.3	 0.0	 0.0	 1	    1.06690	  -12.89630	 63.0	 1	    1.07937	    0.92063;
	2955	 1	 0.0	 0.0	 0.0	 0.0	 1	    1.04378	  -14.95032	 63.0	 1	    1.07937	    0.92063;
	131	 1	 0.0	 0.0	 0.0	 0.0	 1	    1.07248	  -11.09093	 225.0	 1	    1.08889	    1.00000;
	132	 1	 139.1	 40.0	 0.0	 0.0	 1	    1.07308	  -11.61780	 225.0	 1	    1.08889	    1.00000;
	133	 2	 9.2	 3.6	 0.0	 0.0	 1	    1.06040	  -21.57625	 63.0	 1	    1.06538	    0.96825;
	134	 2	 0.0	 0.0	 0.0	 0.0	 1	    1.06280	  -14.30972	 150.0	 1	    1.08000	    0.96667;
	135	 2	 -14.9	 -4.8	 0.0	 0.0	 1	    1.03124	  -11.85202	 63.0	 1	    1.07937	    0.92063;
	136	 1	 31.7	 10.2	 0.0	 0.0	 1	    1.06306	  -11.47149	 225.0	 1	    1.08889	    0.98667;
	137	 1	 9.7	 -2.1	 0.0	 0.0	 1	    1.00646	  -14.29511	 63.0	 1	    1.06349	    0.96825;
	138	 1	 12.8	 5.8	 0.0	 0.0	 1	    1.07684	   -6.31341	 225.0	 1	    1.08444	    1.00000;
	140	 1	 0.0	 0.0	 0.0	 0.0	 1	    1.10270	   -3.11724	 380.0	 1	    1.10526	    1.00000;
	2590	 1	 0.0	 0.0	 0.0	 0.0	 1	    1.10267	   -3.12926	 380.0	 1	    1.10526	    1.00000;
	141	 1	 20.8	 1.1	 0.0	 0.0	 1	    1.08225	   -8.11265	 225.0	 1	    1.08889	    1.00000;
	142	 1	 10.3	 9.6	 0.0	 0.0	 1	    1.07592	  -13.45104	 225.0	 1	    1.08889	    1.00000;
	143	 1	 28.7	 2.3	 0.0	 0.0	 1	    1.03327	  -15.46391	 63.0	 1	    1.06349	    0.96825;
	144	 1	 82.9	 11.1	 0.0	 0.0	 1	    1.08704	   -9.08225	 150.0	 1	    1.10000	    0.90000;
	145	 1	 72.9	 0.2	 0.0	 0.0	 1	    1.08445	   -8.81395	 225.0	 1	    1.08925	    1.00000;
	146	 2	 -3.7	 -0.5	 0.0	 0.0	 1	    1.07212	  -18.16369	 225.0	 1	    1.08889	    1.00000;
	147	 1	 0.0	 0.0	 0.0	 0.0	 1	    1.07052	   -6.39450	 225.0	 1	    1.08889	    0.93333;
	148	 1	 0.0	 0.0	 0.0	 0.0	 1	    1.09076	   -6.88339	 380.0	 1	    1.10526	    1.00000;
	2591	 1	 0.0	 0.0	 0.0	 0.0	 1	    1.08664	   -6.69574	 380.0	 1	    1.10526	    1.00000;
	149	 1	 0.0	 0.0	 0.0	 0.0	 1	    1.08817	  -18.67294	 225.0	 1	    1.08889	    1.00000;
	2592	 1	 66.1	 19.5	 0.0	 0.0	 1	    1.04971	  -18.91617	 225.0	 1	    1.08889	    1.00000;
	150	 1	 0.0	 0.0	 0.0	 0.0	 1	    1.05897	  -11.01493	 225.0	 1	    1.08889	    0.98667;
	151	 1	 24.0	 9.7	 0.0	 0.0	 1	    1.08799	  -18.68551	 225.0	 1	    1.08889	    1.00000;
	153	 1	 137.1	 23.1	 0.0	 0.0	 1	    1.06800	   -7.64544	 225.0	 1	    1.08889	    0.93333;
	154	 1	 0.0	 0.0	 0.0	 0.0	 1	    1.09317	   -5.11869	 380.0	 1	    1.10526	    1.00000;
	155	 1	 55.3	 18.4	 0.0	 0.0	 1	    1.08379	   -7.56869	 225.0	 1	    1.08889	    1.00000;
	156	 1	 30.9	 4.2	 0.0	 0.0	 1	    1.04562	  -13.74781	 63.0	 1	    1.06503	    0.93651;
	157	 1	 2.4	 0.4	 0.0	 0.0	 1	    1.04259	  -11.38885	 63.0	 1	    1.06349	    0.96825;
	158	 1	 27.5	 2.2	 0.0	 0.0	 1	    1.04485	  -14.14367	 63.0	 1	    1.07937	    0.92063;
	159	 1	 24.3	 1.9	 0.0	 0.0	 1	    1.02048	  -18.16724	 63.0	 1	    1.06349	    0.96825;
	160	 1	 5.6	 3.0	 0.0	 0.0	 1	    1.03196	  -15.73830	 63.0	 1	    1.06349	    0.93651;
	161	 2	 0.0	 0.0	 0.0	 0.0	 1	    1.05287	  -11.75679	 63.0	 1	    1.15000	    0.80000;
	162	 1	 0.5	 -40.5	 0.0	 0.0	 1	    1.08373	  -15.59698	 225.0	 1	    1.09053	    1.00000;
	163	 1	 0.0	 0.0	 0.0	 0.0	 1	    1.04365	  -25.81043	 63.0	 1	    1.06349	    0.96825;
	164	 1	 109.3	 -1.7	 0.0	 0.0	 1	    1.08028	   -7.67546	 225.0	 1	    1.09791	    1.00000;
	165	 1	 187.3	 17.6	 0.0	 0.0	 1	    1.07782	   -9.51451	 225.0	 1	    1.08889	    0.98667;
	166	 1	 51.6	 6.2	 0.0	 0.0	 1	    1.03896	  -10.77286	 63.0	 1	    1.06349	    0.96825;
	167	 1	 119.3	 36.7	 0.0	 0.0	 1	    1.08030	  -17.34301	 225.0	 1	    1.09067	    1.00000;
	168	 1	 14.1	 -5.7	 0.0	 0.0	 1	    1.05446	  -13.45836	 63.0	 1	    1.06349	    0.93651;
	169	 1	 24.1	 -4.6	 0.0	 0.0	 1	    1.02817	  -12.06913	 63.0	 1	    1.06349	    0.96825;
	170	 1	 1.8	 0.3	 0.0	 0.0	 1	    1.04310	  -13.22566	 63.0	 1	    1.06822	    0.93651;
	171	 1	 181.5	 51.4	 0.0	 0.0	 1	    1.06684	  -12.63281	 225.0	 1	    1.08889	    0.92444;
	172	 2	 -0.0	 1.2	 0.0	 0.0	 1	    1.01361	   -8.63944	 63.0	 1	    1.06349	    0.96825;
	173	 1	 82.5	 15.9	 0.0	 0.0	 1	    1.09325	   -4.89629	 225.0	 1	    1.09616	    0.98667;
	174	 1	 0.0	 0.0	 0.0	 0.0	 1	    1.10146	   -3.67837	 380.0	 1	    1.10526	    1.00000;
	2998	 1	 0.0	 0.0	 0.0	 0.0	 1	    1.10200	   -4.50247	 380.0	 1	    1.10526	    1.00000;
	175	 1	 120.7	 -49.6	 0.0	 0.0	 1	    1.07418	  -18.76393	 225.0	 1	    1.08444	    1.00000;
	177	 1	 0.0	 0.0	 0.0	 0.0	 1	    0.98600	  -21.82621	 63.0	 1	    1.06349	    0.96086;
	178	 1	 0.0	 0.0	 0.0	 0.0	 1	    1.08444	  -21.27753	 225.0	 1	    1.08444	    1.00000;
	179	 1	 0.0	 0.0	 0.0	 0.0	 1	    1.07879	  -18.76211	 380.0	 1	    1.10263	    1.00000;
	180	 1	 5.0	 0.6	 0.0	 0.0	 1	    1.06800	   -7.67170	 225.0	 1	    1.08889	    0.93333;
	181	 1	 -3.0	 -14.3	 0.0	 0.0	 1	    0.96967	   -6.41874	 45.0	 1	    1.01652	    0.88889;
	182	 1	 0.0	 0.0	 0.0	 0.0	 1	    1.04626	  -12.79015	 63.0	 1	    1.06349	    0.93651;
	183	 1	 0.0	 0.0	 0.0	 0.0	 1	    1.05998	   -9.25424	 225.0	 1	    1.08889	    0.93333;
	184	 2	 0.0	 0.0	 0.0	 0.0	 1	    1.05491	   -8.71633	 225.0	 1	    1.08889	    0.97778;
	185	 1	 22.3	 -2.2	 0.0	 0.0	 1	    1.02248	  -13.50754	 63.0	 1	    1.06349	    0.93651;
	186	 1	 -2.4	 -2.2	 0.0	 0.0	 1	    1.09756	   -0.39419	 225.0	 1	    1.09862	    1.00000;
	187	 1	 0.0	 0.0	 0.0	 0.0	 1	    1.09340	   -0.37083	 380.0	 1	    1.10526	    1.00000;
	2593	 1	 0.0	 0.0	 0.0	 0.0	 1	    1.09347	   -0.36800	 380.0	 1	    1.10526	    1.00000;
	2594	 1	 0.0	 0.0	 0.0	 0.0	 1	    1.09347	   -0.37378	 380.0	 1	    1.10526	    1.00000;
	2595	 1	 0.0	 0.0	 0.0	 0.0	 1	    1.09347	   -0.38247	 380.0	 1	    1.10526	    1.00000;
	188	 1	 0.0	 0.0	 0.0	 0.0	 1	    1.09346	   -4.77744	 225.0	 1	    1.09683	    0.98667;
	2596	 1	 0.0	 0.0	 0.0	 0.0	 1	    1.09331	   -4.77968	 225.0	 1	    1.09683	    0.98667;
	189	 1	 0.0	 0.0	 0.0	 0.0	 1	    1.10130	   -3.55622	 380.0	 1	    1.10526	    1.00000;
	190	 1	 39.7	 -5.2	 0.0	 0.0	 1	    1.08889	   -9.92480	 225.0	 1	    1.08889	    0.96889;
	191	 1	 36.6	 -1.4	 0.0	 0.0	 1	    1.02299	  -26.87713	 63.0	 1	    1.06349	    0.96825;
	192	 1	 38.7	 6.8	 0.0	 0.0	 1	    1.08249	  -22.48935	 225.0	 1	    1.08444	    1.00000;
	193	 1	 51.7	 10.5	 0.0	 0.0	 1	    1.09299	   -8.14360	 380.0	 1	    1.10526	    1.00000;
	194	 1	 0.0	 0.0	 0.0	 0.0	 1	    1.04216	  -13.72220	 63.0	 1	    1.06349	    0.93651;
	2597	 1	 0.0	 0.0	 0.0	 0.0	 1	    1.04190	  -13.34663	 63.0	 1	    1.06349	    0.93651;
	195	 1	 0.0	 0.0	 0.0	 0.0	 1	    1.07338	   -9.14132	 225.0	 1	    1.08889	    0.93333;
	196	 1	 0.0	 0.0	 0.0	 0.0	 1	    1.08461	   -4.74821	 380.0	 1	    1.10526	    1.00000;
	197	 1	 6.2	 17.4	 0.0	 0.0	 1	    1.04380	   -9.14561	 63.0	 1	    1.06349	    0.96825;
	198	 1	 0.0	 0.0	 0.0	 0.0	 1	    1.07869	   -5.77370	 225.0	 1	    1.08444	    1.00000;
	199	 1	 250.8	 25.3	 0.0	 0.0	 1	    1.07331	   -8.61357	 225.0	 1	    1.08444	    1.00000;
	200	 1	 47.3	 6.4	 0.0	 0.0	 1	    1.07285	   -9.80685	 225.0	 1	    1.08889	    0.93333;
	2598	 1	 44.8	 9.4	 0.0	 0.0	 1	    1.07282	   -9.80956	 225.0	 1	    1.08889	    0.93333;
	201	 1	 51.0	 0.4	 0.0	 0.0	 1	    1.08339	  -15.59323	 225.0	 1	    1.09027	    1.00000;
	202	 1	 0.0	 0.0	 0.0	 0.0	 1	    1.06662	   -6.05638	 225.0	 1	    1.09529	    1.00000;
	2599	 1	 0.0	 0.0	 0.0	 0.0	 1	    1.06662	   -6.05757	 225.0	 1	    1.09529	    1.00000;
	203	 1	 76.8	 4.7	 0.0	 0.0	 1	    1.07643	   -9.15657	 225.0	 1	    1.08889	    1.00000;
	204	 1	 31.4	 -2.8	 0.0	 0.0	 1	    1.08413	  -10.71878	 225.0	 1	    1.08889	    1.00000;
	205	 1	 0.0	 0.0	 0.0	 0.0	 1	    1.01979	  -10.23531	 63.0	 1	    1.06349	    0.96825;
	206	 1	 0.0	 0.0	 0.0	 0.0	 1	    1.07616	   -6.63667	 225.0	 1	    1.08444	    1.00000;
	207	 1	 13.9	 5.2	 0.0	 0.0	 1	    1.03451	  -15.92034	 63.0	 1	    1.06349	    0.96825;
	208	 1	 6.3	 5.0	 0.0	 0.0	 1	    1.06412	  -15.73440	 63.0	 1	    1.07937	    0.92063;
	209	 1	 44.8	 -0.6	 0.0	 0.0	 1	    1.04437	  -14.68513	 63.0	 1	    1.06349	    0.93651;
	210	 1	 0.0	 0.0	 0.0	 0.0	 1	    1.05431	  -20.08994	 63.0	 1	    1.07937	    0.92063;
	211	 1	 33.9	 5.9	 0.0	 0.0	 1	    1.07515	   -9.79741	 225.0	 1	    1.08889	    1.00000;
	212	 1	 0.0	 0.0	 0.0	 0.0	 1	    1.08079	  -13.38235	 225.0	 1	    1.08444	    1.00000;
	213	 1	 0.0	 0.0	 0.0	 0.0	 1	    1.08075	  -13.38852	 225.0	 1	    1.08444	    1.00000;
	2600	 1	 0.0	 0.0	 0.0	 0.0	 1	    1.07993	   -8.41543	 225.0	 1	    1.08444	    1.00000;
	214	 1	 0.0	 0.0	 0.0	 0.0	 1	    1.08144	   -6.24502	 380.0	 1	    1.10263	    1.00000;
	215	 1	 -3.6	 -5.3	 0.0	 0.0	 1	    1.04978	  -11.50694	 63.0	 1	    1.06418	    0.93651;
	216	 1	 186.0	 34.8	 0.0	 0.0	 1	    1.08117	   -7.34145	 225.0	 1	    1.08889	    0.88889;
	217	 1	 0.0	 0.0	 0.0	 0.0	 1	    1.09755	   -0.39425	 225.0	 1	    1.09861	    1.00000;
	218	 1	 0.0	 0.0	 0.0	 0.0	 1	    1.09338	   -0.44251	 380.0	 1	    1.10526	    1.00000;
	219	 1	 37.1	 2.4	 0.0	 0.0	 1	    1.08405	  -12.76559	 225.0	 1	    1.08889	    0.98667;
	220	 2	 0.0	 0.0	 0.0	 0.0	 1	    1.04609	  -20.58493	 63.0	 1	    1.06349	    0.96825;
	221	 1	 22.8	 6.4	 0.0	 0.0	 1	    1.02558	  -11.94892	 63.0	 1	    1.07937	    0.92063;
	222	 1	 0.0	 0.0	 0.0	 0.0	 1	    1.06869	  -11.10288	 225.0	 1	    1.08889	    1.00000;
	223	 1	 0.0	 0.0	 0.0	 0.0	 1	    1.07985	  -25.46027	 225.0	 1	    1.08444	    1.00000;
	2601	 1	 0.0	 0.0	 0.0	 0.0	 1	    1.07984	  -25.46007	 225.0	 1	    1.08444	    1.00000;
	2602	 1	 0.0	 0.0	 0.0	 0.0	 1	    1.07984	  -25.46007	 225.0	 1	    1.08444	    1.00000;
	224	 1	 70.6	 -9.6	 0.0	 0.0	 1	    1.07984	  -25.46005	 225.0	 1	    1.08444	    1.00000;
	225	 2	 0.0	 0.0	 0.0	 0.0	 1	    1.03459	   -4.82281	 20.0	 1	    1.20000	    0.80000;
	226	 1	 0.0	 0.0	 0.0	 0.0	 1	    1.05298	   -8.58975	 225.0	 1	    1.08889	    0.93333;
	227	 1	 15.7	 -0.9	 0.0	 0.0	 1	    1.07192	  -12.48080	 225.0	 1	    1.08889	    0.98667;
	229	 1	 0.0	 0.0	 0.0	 0.0	 1	    1.06739	   -6.12640	 225.0	 1	    1.09040	    1.00000;
	230	 1	 0.0	 0.0	 0.0	 0.0	 1	    1.08789	   -4.03402	 380.0	 1	    1.10526	    1.00000;
	231	 2	 0.0	 0.0	 0.0	 0.0	 1	    1.07609	   -6.45166	 225.0	 1	    1.08889	    0.93333;
	232	 1	 13.4	 1.0	 0.0	 0.0	 1	    1.01093	  -11.54458	 63.0	 1	    1.06349	    0.96825;
	2603	 1	 8.9	 -0.3	 0.0	 0.0	 1	    1.02564	  -12.69702	 63.0	 1	    1.06349	    0.96825;
	233	 1	 0.0	 0.0	 0.0	 0.0	 1	    1.06383	  -10.35097	 150.0	 1	    1.08000	    0.96667;
	234	 1	 3.8	 0.2	 0.0	 0.0	 1	    1.07265	  -17.87904	 225.0	 1	    1.08889	    1.00000;
	2604	 1	 53.2	 27.8	 0.0	 0.0	 1	    1.07194	  -17.95217	 225.0	 1	    1.08889	    1.00000;
	235	 2	 0.0	 0.0	 0.0	 0.0	 1	    1.04725	  -11.57321	 63.0	 1	    1.06349	    0.93651;
	236	 2	 26.8	 0.8	 0.0	 0.0	 1	    1.04003	  -13.96888	 63.0	 1	    1.06349	    0.96825;
	237	 1	 15.0	 0.1	 0.0	 0.0	 1	    1.04229	  -12.44022	 63.0	 1	    1.06349	    0.93651;
	238	 1	 48.1	 15.9	 0.0	 0.0	 1	    1.07947	   -7.39936	 225.0	 1	    1.08889	    0.88889;
	239	 1	 0.0	 0.0	 0.0	 0.0	 1	    1.07466	   -6.10736	 225.0	 1	    1.09190	    1.00000;
	2605	 1	 0.0	 0.0	 0.0	 0.0	 1	    1.07466	   -6.10716	 225.0	 1	    1.09190	    1.00000;
	2606	 1	 0.0	 0.0	 0.0	 0.0	 1	    1.07483	   -6.11291	 225.0	 1	    1.09190	    1.00000;
	2607	 1	 0.0	 0.0	 0.0	 0.0	 1	    1.07469	   -6.10819	 225.0	 1	    1.09190	    1.00000;
	2608	 1	 0.0	 0.0	 0.0	 0.0	 1	    1.07469	   -6.10819	 225.0	 1	    1.09190	    1.00000;
	240	 2	 0.0	 0.0	 0.0	 0.0	 1	    1.08346	   -2.86266	 380.0	 1	    1.10694	    1.00000;
	241	 1	 13.8	 6.5	 0.0	 0.0	 1	    1.04176	   -8.60251	 63.0	 1	    1.06721	    0.93651;
	242	 1	 43.7	 6.5	 0.0	 0.0	 1	    1.03979	  -12.38675	 63.0	 1	    1.06349	    0.96825;
	243	 1	 165.4	 29.4	 0.0	 0.0	 1	    1.07530	   -9.77134	 225.0	 1	    1.08889	    1.00000;
	244	 1	 39.8	 7.7	 0.0	 0.0	 1	    1.03917	  -18.98426	 63.0	 1	    1.06349	    0.96825;
	245	 1	 36.4	 15.7	 0.0	 0.0	 1	    1.08227	  -10.20531	 225.0	 1	    1.08889	    0.98667;
	246	 1	 0.0	 0.0	 0.0	 0.0	 1	    1.09283	   -2.84072	 380.0	 1	    1.10526	    1.00000;
	2609	 1	 0.0	 0.0	 0.0	 0.0	 1	    1.09321	   -2.89822	 380.0	 1	    1.10526	    1.00000;
	2610	 1	 0.0	 0.0	 0.0	 0.0	 1	    1.09283	   -2.84737	 380.0	 1	    1.10526	    1.00000;
	2611	 1	 0.0	 0.0	 0.0	 0.0	 1	    1.09321	   -2.90863	 380.0	 1	    1.10526	    1.00000;
	247	 1	 42.1	 16.7	 0.0	 0.0	 1	    1.07439	  -11.68195	 225.0	 1	    1.08889	    0.92444;
	248	 1	 24.3	 1.4	 0.0	 0.0	 1	    1.03428	  -13.45875	 63.0	 1	    1.06349	    0.93651;
	249	 1	 13.6	 -1.2	 0.0	 0.0	 1	    1.01242	  -15.37523	 63.0	 1	    1.06349	    0.93651;
	250	 1	 -2.7	 0.0	 0.0	 0.0	 1	    1.07377	  -15.50185	 225.0	 1	    1.08889	    0.98667;
	251	 1	 87.5	 47.6	 0.0	 0.0	 1	    1.06069	  -20.52931	 225.0	 1	    1.08684	    1.00000;
	252	 2	 -0.0	 0.0	 0.0	 0.0	 1	    0.93922	   -7.06334	 45.0	 1	    1.00000	    0.88889;
	253	 1	 -0.9	 0.5	 0.0	 0.0	 1	    1.09763	   -0.82736	 380.0	 1	    1.10263	    1.00000;
	254	 1	 -0.4	 0.5	 0.0	 0.0	 1	    1.09765	   -0.84175	 380.0	 1	    1.10263	    1.00000;
	255	 1	 5.8	 -0.5	 0.0	 0.0	 1	    1.03473	  -11.63983	 63.0	 1	    1.06754	    0.93651;
	256	 1	 0.0	 0.0	 0.0	 0.0	 1	    1.06863	  -18.60998	 225.0	 1	    1.08889	    1.00000;
	257	 1	 0.0	 0.0	 0.0	 0.0	 1	    1.08033	   -6.62592	 225.0	 1	    1.08889	    0.97778;
	2612	 1	 0.0	 0.0	 0.0	 0.0	 1	    1.08033	   -6.62592	 225.0	 1	    1.08889	    0.97778;
	258	 1	 65.9	 4.3	 0.0	 0.0	 1	    1.08408	  -10.65039	 225.0	 1	    1.08889	    0.96889;
	259	 2	 0.0	 0.0	 0.0	 0.0	 1	    1.07787	   -5.58435	 20.0	 1	    1.20000	    0.80000;
	2613	 2	 0.0	 0.0	 0.0	 0.0	 1	    1.07797	   -5.71346	 20.0	 1	    1.20000	    0.80000;
	2614	 2	 0.0	 0.0	 0.0	 0.0	 1	    1.07797	   -5.71346	 20.0	 1	    1.20000	    0.80000;
	260	 1	 0.0	 0.0	 0.0	 0.0	 1	    1.07714	   -6.59670	 225.0	 1	    1.08889	    0.93333;
	2615	 1	 0.0	 0.0	 0.0	 0.0	 1	    1.07713	   -6.61602	 225.0	 1	    1.08889	    0.93333;
	261	 1	 92.8	 34.4	 0.0	 0.0	 1	    1.05739	  -17.10820	 225.0	 1	    1.08489	    1.00000;
	262	 2	 9.8	 1.5	 0.0	 0.0	 1	    0.93868	   -7.01386	 45.0	 1	    1.00000	    0.88889;
	263	 1	 30.9	 1.4	 0.0	 0.0	 1	    1.07754	  -14.48906	 20.0	 1	    1.20000	    0.80000;
	2616	 1	 23.9	 3.2	 0.0	 0.0	 1	    1.07753	  -14.48610	 20.0	 1	    1.20000	    0.80000;
	2617	 1	 23.0	 0.5	 0.0	 0.0	 1	    1.07755	  -14.48583	 20.0	 1	    1.20000	    0.80000;
	264	 1	 195.0	 -58.4	 0.0	 0.0	 1	    1.07757	  -14.47636	 225.0	 1	    1.08444	    1.00000;
	265	 1	 14.6	 -4.0	 0.0	 0.0	 1	    1.04015	  -14.00308	 63.0	 1	    1.06349	    0.96825;
	266	 1	 0.0	 0.0	 0.0	 0.0	 1	    1.07405	   -9.21406	 225.0	 1	    1.08889	    0.97778;
	267	 1	 0.0	 0.0	 0.0	 0.0	 1	    1.07954	   -7.99990	 225.0	 1	    1.08444	    1.00000;
	268	 1	 21.6	 -4.6	 0.0	 0.0	 1	    1.04505	  -14.11754	 63.0	 1	    1.06349	    0.93651;
	269	 1	 34.5	 5.6	 0.0	 0.0	 1	    1.02157	  -26.69059	 63.0	 1	    1.06349	    0.96825;
	270	 1	 155.6	 18.6	 0.0	 0.0	 1	    1.07623	  -13.22080	 225.0	 1	    1.08889	    0.95111;
	271	 2	 0.0	 0.0	 0.0	 0.0	 1	    1.05719	  -10.67241	 63.0	 1	    1.06349	    0.93651;
	272	 1	 76.6	 12.4	 0.0	 0.0	 1	    1.08534	  -16.75662	 225.0	 1	    1.08889	    1.00000;
	273	 1	 89.1	 13.2	 0.0	 0.0	 1	    1.07363	  -15.58137	 225.0	 1	    1.08889	    0.98667;
	274	 2	 0.0	 0.0	 0.0	 0.0	 1	    1.05550	  -10.38318	 63.0	 1	    1.06349	    0.93651;
	275	 2	 0.0	 0.0	 0.0	 0.0	 1	    1.05782	  -10.24491	 63.0	 1	    1.06349	    0.93651;
	276	 1	 21.1	 -6.0	 0.0	 0.0	 1	    1.01681	  -14.05944	 63.0	 1	    1.09138	    0.92063;
	277	 1	 20.3	 2.7	 0.0	 0.0	 1	    1.02813	  -12.90898	 63.0	 1	    1.06725	    0.93651;
	279	 1	 29.3	 1.8	 0.0	 0.0	 1	    1.07626	  -21.58310	 225.0	 1	    1.08444	    1.00000;
	280	 1	 0.0	 0.0	 0.0	 0.0	 1	    1.07785	  -19.61701	 380.0	 1	    1.10263	    1.00000;
	281	 1	 41.0	 2.6	 0.0	 0.0	 1	    1.02890	  -10.90841	 63.0	 1	    1.06349	    0.96825;
	282	 1	 108.4	 30.6	 0.0	 0.0	 1	    1.08461	  -17.06598	 225.0	 1	    1.08889	    1.00000;