%%%%%%%%%%%%%%%%%%%%%%%%%%%%%%%%%%%%%%%%%%%%%%%%%%%%%%%%%%%%%%%%%%%%%%%%%%%
%%%%                                                                  %%%%%
%%%%    IEEE PES Power Grid Library - Optimal Power Flow - v17.07     %%%%%
%%%%          (https://github.com/power-grid-lib/pglib-opf)           %%%%%
%%%%             Benchmark Group - Small Angle Difference             %%%%%
%%%%                         27 - June - 2017                         %%%%%
%%%%                                                                  %%%%%
%%%%%%%%%%%%%%%%%%%%%%%%%%%%%%%%%%%%%%%%%%%%%%%%%%%%%%%%%%%%%%%%%%%%%%%%%%%
function mpc = pglib_opf_case2869_pegase__sad
mpc.version = '2';
mpc.baseMVA = 100.0;

%% bus data
%	bus_i	type	Pd	Qd	Gs	Bs	area	Vm	Va	baseKV	zone	Vmax	Vmin
mpc.bus = [
	3	 1	 151.0	 48.8	 0.0	 4.69	 0	    1.07560	   -8.15551	 220.0	 5	    1.10000	    0.90000;
	4	 1	 171.41	 23.4	 0.0	 2.1	 0	    1.05878	   -5.76413	 220.0	 5	    1.10000	    0.90000;
	10	 1	 134.0	 24.7	 0.0	 12.44	 0	    1.06427	  -17.31188	 220.0	 5	    1.10000	    0.90000;
	15	 1	 59.67	 26.7	 0.0	 12.84	 0	    1.06498	  -13.92386	 220.0	 4	    1.10000	    0.90000;
	21	 1	 161.2	 39.3	 0.0	 30.71	 0	    1.06026	  -15.83587	 220.0	 5	    1.10000	    0.90000;
	22	 1	 0.0	 -0.0	 0.0	 0.85	 0	    1.07906	  -10.84428	 220.0	 5	    1.10000	    0.90000;
	26	 1	 167.3	 54.8	 0.0	 110.54	 0	    1.07035	   -1.22958	 380.0	 5	    1.10000	    0.90000;
	29	 1	 152.9	 49.4	 0.0	 27.65	 0	    1.05017	   -2.94830	 380.0	 5	    1.10000	    0.90000;
	32	 2	 0.0	 0.0	 0.0	 0.0	 0	    1.03499	   -6.59092	 220.0	 4	    1.10000	    0.90000;
	33	 2	 0.0	 0.0	 0.0	 0.0	 0	    1.05645	   -5.46768	 220.0	 4	    1.10000	    0.90000;
	38	 1	 42.75	 12.8	 0.0	 13.3	 0	    1.02515	   -3.49045	 220.0	 8	    1.10000	    0.90000;
	39	 2	 0.0	 0.0	 0.0	 0.0	 0	    1.02204	   -5.50669	 150.0	 10	    1.10000	    0.90000;
	42	 1	 20.82	 7.9	 0.0	 26.89	 0	    1.08583	   -7.02924	 380.0	 4	    1.10000	    0.90000;
	44	 1	 -0.0	 0.0	 0.0	 7.27	 0	    1.07116	  -15.33146	 220.0	 5	    1.10000	    0.90000;
	51	 2	 0.0	 0.0	 0.0	 0.0	 0	    1.06866	   -5.51643	 220.0	 4	    1.10000	    0.90000;
	52	 1	 127.6	 31.8	 0.0	 20.51	 0	    1.06351	  -12.63595	 150.0	 8	    1.10000	    0.90000;
	53	 1	 48.65	 16.1	 0.0	 7.14	 0	    1.09483	   -2.65698	 220.0	 5	    1.10000	    0.90000;
	58	 1	 0.0	 0.0	 0.0	 2.31	 0	    1.04516	   -1.12275	 380.0	 5	    1.10000	    0.90000;
	59	 1	 119.2	 20.7	 0.0	 3.31	 0	    1.08347	  -12.11559	 220.0	 5	    1.10000	    0.90000;
	69	 1	 62.87	 20.5	 0.0	 1.15	 0	    1.06333	  -13.70445	 150.0	 8	    1.10000	    0.90000;
	71	 1	 126.3	 42.4	 0.0	 55.24	 0	    1.07901	  -13.14395	 150.0	 8	    1.10000	    0.90000;
	72	 1	 6.91	 -4.6	 0.0	 5.75	 0	    1.04615	   -6.64317	 220.0	 4	    1.10000	    0.90000;
	75	 1	 38.74	 6.1	 0.0	 1.17	 0	    1.07527	  -10.61503	 220.0	 4	    1.10000	    0.90000;
	76	 1	 22.13	 10.7	 0.0	 14.21	 0	    1.02523	   -3.48651	 220.0	 8	    1.10000	    0.90000;
	77	 1	 -0.0	 -0.0	 0.0	 0.73	 0	    1.08183	   -7.26371	 220.0	 4	    1.10000	    0.90000;
	89	 1	 0.0	 0.0	 0.199111	 4.530599	 0	    1.02602	   -5.51747	 380.0	 2	    1.10000	    0.90000;
	90	 1	 363.25	 115.39	 0.0	 3.95	 0	    1.07609	  -10.29523	 220.0	 5	    1.10000	    0.90000;
	91	 1	 -0.0	 0.0	 0.0	 0.02	 0	    1.06667	  -11.40077	 150.0	 8	    1.10000	    0.90000;
	96	 1	 -8.4	 28.66	 0.0	 3.49	 0	    1.09592	   -1.92339	 220.0	 5	    1.10000	    0.90000;
	113	 1	 -0.0	 -0.0	 0.0	 6.532711	 0	    1.06508	   -4.10518	 380.0	 5	    1.10000	    0.90000;
	115	 1	 0.0	 -0.0	 0.0	 4.21	 0	    1.07025	  -12.30083	 220.0	 5	    1.10000	    0.90000;
	118	 1	 704.53	 -35.33	 0.0	 13.102834	 0	    1.07405	   -4.11607	 380.0	 5	    1.10000	    0.90000;
	124	 2	 0.0	 0.0	 0.0	 0.0	 0	    1.07082	    2.22969	 220.0	 5	    1.10000	    0.90000;
	128	 1	 23.73	 12.7	 0.0	 0.52	 0	    1.05197	  -12.75889	 220.0	 5	    1.10000	    0.90000;
	130	 1	 -0.0	 0.0	 0.135375	 47.750675	 0	    1.09049	  -10.79323	 380.0	 10	    1.10000	    0.90000;
	132	 1	 0.0	 -0.0	 0.0	 21.39	 0	    1.09111	   -7.51359	 380.0	 1	    1.10000	    0.90000;
	133	 1	 38.14	 12.5	 0.0	 6.28	 0	    1.06829	  -11.43238	 150.0	 8	    1.10000	    0.90000;
	138	 1	 -75.38	 7.8	 0.0	 29.9	 0	    1.09518	   -8.15249	 380.0	 10	    1.10000	    0.90000;
	139	 1	 -764.34	 66.91	 0.0	 33.47	 0	    1.04290	   -3.15029	 380.0	 8	    1.10000	    0.90000;
	140	 1	 0.0	 0.0	 0.0	 4.14	 0	    1.04873	   -8.39274	 220.0	 8	    1.10000	    0.90000;
	143	 1	 0.0	 0.0	 0.0	 0.0	 0	    1.05511	  -12.34749	 150.0	 8	    1.10000	    0.90000;
	145	 1	 38.34	 5.6	 0.0	 7.64	 0	    1.09147	   -4.28233	 220.0	 5	    1.10000	    0.90000;
	148	 1	 32.34	 12.0	 0.0	 6.1	 0	    1.06881	   -4.53189	 220.0	 5	    1.10000	    0.90000;
	150	 2	 0.0	 0.0	 0.0	 0.0	 0	    1.08141	   -3.28316	 220.0	 5	    1.10000	    0.90000;
	163	 1	 147.76	 32.73	 0.0	 8.34	 0	    1.07962	   -8.31810	 220.0	 5	    1.10000	    0.90000;
	164	 1	 0.0	 -0.0	 0.0	 5.17	 0	    1.05448	  -17.46517	 150.0	 8	    1.10000	    0.90000;
	171	 1	 100.8	 13.2	 0.0	 5.24	 0	    1.06279	   -7.82590	 220.0	 5	    1.10000	    0.90000;
	172	 1	 111.7	 10.96	 0.0	 4.22	 0	    1.06249	   -6.13077	 220.0	 4	    1.10000	    0.90000;
	174	 1	 370.5	 -17.0	 0.0	 9.91	 0	    1.09102	  -16.26839	 220.0	 5	    1.10000	    0.90000;
	177	 1	 94.9	 36.2	 0.0	 16.46	 0	    0.99821	  -10.00600	 220.0	 10	    1.10000	    0.90000;
	179	 2	 0.0	 0.0	 0.0	 0.0	 0	    1.09231	   -5.60533	 380.0	 4	    1.10000	    0.90000;
	184	 1	 -0.0	 -0.0	 0.0	 2.42	 0	    1.06540	  -10.41749	 220.0	 5	    1.10000	    0.90000;
	188	 1	 36.84	 13.9	 0.0	 3.3	 0	    1.05633	   -9.74349	 220.0	 5	    1.10000	    0.90000;
	194	 2	 0.0	 0.0	 0.0	 0.0	 0	    1.08306	   -2.67446	 150.0	 8	    1.10000	    0.90000;
	195	 1	 73.14	 21.55	 0.0	 8.52	 0	    1.08278	   -5.10140	 220.0	 5	    1.10000	    0.90000;
	196	 1	 0.0	 -0.0	 0.0	 12.48	 0	    1.09932	  -20.27950	 220.0	 5	    1.10000	    0.90000;
	198	 1	 39.74	 11.8	 0.0	 1.44	 0	    1.04783	  -13.16061	 220.0	 5	    1.10000	    0.90000;
	199	 1	 86.8	 28.4	 0.0	 1.34	 0	    1.06255	  -12.23244	 150.0	 8	    1.10000	    0.90000;
	201	 2	 0.0	 0.0	 0.0	 0.0	 0	    1.08075	   -8.64929	 220.0	 4	    1.10000	    0.90000;
	205	 1	 46.15	 18.2	 0.0	 1.29	 0	    1.05146	  -11.81398	 150.0	 8	    1.10000	    0.90000;
	207	 1	 321.98	 84.4	 0.0	 1.34	 0	    1.04998	  -12.11745	 220.0	 5	    1.10000	    0.90000;
	211	 1	 75.28	 19.2	 0.0	 1.9	 0	    1.05383	  -12.19472	 110.0	 8	    1.10000	    0.90000;
	216	 1	 155.6	 54.7	 0.0	 2.21	 0	    1.08635	  -15.23774	 220.0	 5	    1.10000	    0.90000;
	217	 1	 105.2	 0.1	 0.0	 7.36	 0	    1.04338	   -6.64554	 220.0	 5	    1.10000	    0.90000;
	218	 1	 69.83	 15.12	 0.0	 2.23	 0	    1.08899	   -7.68898	 220.0	 5	    1.10000	    0.90000;
	221	 2	 0.0	 0.0	 0.0	 0.0	 0	    1.04083	   -1.15620	 380.0	 5	    1.10000	    0.90000;
	225	 1	 0.0	 0.0	 0.0	 1.15	 0	    1.06738	  -12.67992	 220.0	 5	    1.10000	    0.90000;
	228	 1	 -23.43	 57.4	 0.0	 0.0	 0	    1.07667	   -8.16463	 150.0	 2	    1.10000	    0.90000;
	230	 1	 152.07	 22.52	 0.0	 7.87	 0	    1.05116	   -5.23850	 220.0	 4	    1.10000	    0.90000;
	231	 1	 -0.13	 -1.0	 0.0	 0.0	 0	    1.02203	   -6.71171	 110.0	 8	    1.10000	    0.90000;
	236	 1	 45.85	 7.0	 0.0	 1.05	 0	    1.07107	  -12.58879	 220.0	 4	    1.10000	    0.90000;
	243	 1	 0.0	 -0.01	 0.0	 13.49	 0	    1.06127	   -1.44472	 150.0	 8	    1.10000	    0.90000;
	244	 1	 -0.0	 -0.0	 0.0	 0.68	 0	    1.06926	   -9.06115	 150.0	 8	    1.10000	    0.90000;
	249	 1	 -0.0	 -0.0	 0.0	 26.3	 0	    1.03461	   -6.59812	 220.0	 4	    1.10000	    0.90000;
	257	 1	 113.9	 24.5	 0.0	 6.72	 0	    1.06612	   -8.97976	 220.0	 4	    1.10000	    0.90000;
	261	 1	 -0.0	 0.0	 0.0	 1.29	 0	    1.08665	  -10.95945	 380.0	 10	    1.10000	    0.90000;
	264	 1	 38.74	 9.0	 0.0	 0.57	 0	    1.06381	   -5.43505	 220.0	 4	    1.10000	    0.90000;
	266	 1	 0.0	 -0.0	 0.0	 140.96	 0	    1.08838	   -4.22085	 380.0	 4	    1.10000	    0.90000;
	267	 1	 103.8	 2.7	 0.0	 3.33	 0	    1.07367	   -9.43199	 220.0	 4	    1.10000	    0.90000;
	268	 1	 -0.13	 -1.0	 0.0	 0.0	 0	    1.04144	   -3.25533	 220.0	 8	    1.10000	    0.90000;
	271	 1	 96.7	 26.8	 0.0	 0.0	 0	    1.07153	   -9.72771	 150.0	 2	    1.10000	    0.90000;
	275	 1	 102.1	 25.3	 0.0	 1.11	 0	    1.06248	  -11.93909	 150.0	 8	    1.10000	    0.90000;
	280	 1	 119.6	 29.6	 0.0	 5.34	 0	    1.07980	   -5.54177	 220.0	 5	    1.10000	    0.90000;
	281	 1	 -0.0	 -0.0	 0.0	 18.07	 0	    1.07863	   -3.96013	 380.0	 8	    1.10000	    0.90000;
	283	 1	 27.33	 11.9	 0.0	 1.17	 0	    1.05937	  -10.92751	 220.0	 5	    1.10000	    0.90000;
	284	 1	 191.2	 -3.4	 0.0	 19.21	 0	    1.06491	  -13.98437	 220.0	 4	    1.10000	    0.90000;
	292	 1	 13.82	 1.4	 0.0	 0.7	 0	    1.09718	   -7.54240	 220.0	 5	    1.10000	    0.90000;
	297	 1	 23.73	 9.4	 0.0	 1.45	 0	    1.06192	  -12.34516	 150.0	 8	    1.10000	    0.90000;
	299	 2	 0.0	 0.0	 0.0	 0.0	 0	    1.10000	   -3.82007	 380.0	 4	    1.10000	    0.90000;
	304	 1	 2.2	 0.5	 0.0	 0.21	 0	    1.02577	  -17.92847	 150.0	 10	    1.10000	    0.90000;
	305	 1	 103.0	 12.0	 0.0	 0.63	 0	    1.08263	  -18.96748	 220.0	 5	    1.10000	    0.90000;
	306	 1	 -0.0	 0.0	 0.0	 4.76	 0	    1.04690	  -13.95520	 220.0	 5	    1.10000	    0.90000;
	311	 1	 42.05	 17.2	 0.0	 1.31	 0	    1.06091	  -12.54215	 150.0	 8	    1.10000	    0.90000;
	312	 1	 -0.16	 -2.91	 0.0	 0.43	 0	    1.09783	   -9.24393	 110.0	 8	    1.10000	    0.90000;
	314	 1	 163.1	 46.3	 0.0	 10.6	 0	    1.03435	  -14.20060	 220.0	 5	    1.10000	    0.90000;
	315	 1	 -0.0	 -0.0	 0.0	 2.13	 0	    1.04097	   -6.10816	 220.0	 10	    1.10000	    0.90000;
	317	 1	 -0.0	 -0.0	 0.045946	 -1.82203	 0	    1.04041	   -1.86971	 380.0	 2	    1.10000	    0.90000;
	322	 1	 303.8	 85.4	 0.0	 3.63	 0	    0.98875	  -11.49371	 220.0	 10	    1.10000	    0.90000;
	326	 1	 0.0	 0.0	 0.0	 0.0	 0	    1.04143	   -3.22064	 220.0	 8	    1.10000	    0.90000;
	333	 1	 524.5	 43.0	 0.0	 6.85	 0	    1.03829	  -27.42617	 220.0	 5	    1.10000	    0.90000;
	338	 2	 0.0	 0.0	 0.0	 0.0	 0	    1.09948	   -3.42739	 220.0	 5	    1.10000	    0.90000;
	344	 1	 372.8	 147.5	 0.0	 27.73	 0	    1.06909	  -18.04363	 150.0	 8	    1.10000	    0.90000;
	346	 1	 197.5	 48.3	 0.0	 0.71	 0	    1.08490	  -13.03402	 220.0	 5	    1.10000	    0.90000;
	349	 1	 -0.0	 0.0	 0.0	 15.15	 0	    1.08487	   -9.25927	 150.0	 8	    1.10000	    0.90000;
	350	 1	 110.4	 26.2	 0.0	 5.62	 0	    1.06868	  -16.35891	 220.0	 5	    1.10000	    0.90000;
	351	 1	 -0.15	 -1.93	 0.0	 0.0	 0	    1.04573	   -8.10455	 220.0	 8	    1.10000	    0.90000;
	352	 2	 0.0	 0.0	 0.0	 0.0	 0	    1.01919	    1.80369	 380.0	 5	    1.10000	    0.90000;
	360	 1	 35.54	 11.5	 0.0	 3.65	 0	    1.09126	   -9.40816	 110.0	 8	    1.10000	    0.90000;
	367	 1	 65.17	 -51.5	 0.0	 4.85	 0	    1.09518	  -17.67108	 220.0	 5	    1.10000	    0.90000;
	369	 1	 -0.0	 0.0	 0.0	 3.78	 0	    1.07539	   -9.67808	 220.0	 8	    1.10000	    0.90000;
	370	 1	 56.76	 23.2	 0.0	 0.49	 0	    1.05836	  -12.71338	 150.0	 8	    1.10000	    0.90000;
	377	 1	 -0.18	 -1.0	 0.0	 0.0	 0	    1.07220	   -5.40973	 150.0	 8	    1.10000	    0.90000;
	380	 1	 -95.71	 -2.8	 0.0	 7.25	 0	    1.01426	   -3.45372	 220.0	 10	    1.10000	    0.90000;
	385	 1	 -0.0	 -0.0	 0.0	 105.84	 0	    1.08479	   -9.14818	 380.0	 4	    1.10000	    0.90000;
	387	 1	 -0.19	 -4.38	 0.0	 0.0	 0	    1.06698	  -10.84676	 150.0	 8	    1.10000	    0.90000;
	389	 2	 0.0	 0.0	 0.0	 0.0	 0	    1.03102	   -8.51525	 150.0	 10	    1.10000	    0.90000;
	392	 1	 134.1	 34.2	 0.0	 0.75	 0	    1.05732	  -13.66197	 150.0	 8	    1.10000	    0.90000;
	395	 1	 -0.0	 -0.0	 0.0	 7.85	 0	    1.07832	   -3.46693	 380.0	 8	    1.10000	    0.90000;
	401	 1	 56.5	 36.29	 0.0	 3.08	 0	    1.09491	   -5.19131	 220.0	 5	    1.10000	    0.90000;
	408	 1	 129.1	 7.4	 0.0	 0.04	 0	    1.06847	  -10.45752	 220.0	 5	    1.10000	    0.90000;
	410	 1	 170.89	 50.38	 0.0	 6.44	 0	    1.08237	  -10.87771	 220.0	 5	    1.10000	    0.90000;
	413	 2	 0.0	 0.0	 0.0	 0.0	 0	    1.07810	    1.45591	 220.0	 5	    1.10000	    0.90000;
	415	 1	 4.71	 0.7	 0.0	 11.39	 0	    1.06943	  -10.46580	 220.0	 4	    1.10000	    0.90000;
	416	 1	 70.68	 13.5	 0.0	 6.96	 0	    1.08896	   -5.59547	 220.0	 5	    1.10000	    0.90000;
	420	 1	 0.0	 0.0	 0.0	 0.0	 0	    1.09149	   -1.25952	 380.0	 8	    1.10000	    0.90000;
	425	 1	 -0.0	 0.0	 0.0	 2.72	 0	    1.05848	   -4.75515	 380.0	 1	    1.10000	    0.90000;
	426	 1	 123.1	 6.5	 0.0	 3.25	 0	    1.08121	   -9.58613	 220.0	 5	    1.10000	    0.90000;
	427	 1	 -0.0	 0.0	 0.0	 1.24	 0	    1.08650	   -4.41799	 380.0	 1	    1.10000	    0.90000;
	429	 1	 26.93	 -22.4	 0.0	 4.95	 0	    1.08621	   -6.42087	 220.0	 4	    1.10000	    0.90000;
	432	 1	 -0.0	 -0.0	 0.0	 68.517663	 0	    1.06049	    0.01590	 380.0	 5	    1.10000	    0.90000;
	440	 2	 0.0	 0.0	 0.0	 0.0	 0	    1.03862	   -3.83293	 220.0	 4	    1.10000	    0.90000;
	441	 1	 -0.0	 0.0	 0.199768	 27.888516	 0	    1.07040	  -16.12467	 380.0	 10	    1.10000	    0.90000;
	442	 2	 0.0	 0.0	 0.0	 0.0	 0	    1.06199	   -3.88778	 220.0	 4	    1.10000	    0.90000;
	444	 1	 0.0	 -0.0	 0.0	 2.45	 0	    1.05940	  -10.95837	 220.0	 5	    1.10000	    0.90000;
	445	 1	 36.74	 10.3	 0.0	 8.1	 0	    1.06469	  -10.28831	 220.0	 4	    1.10000	    0.90000;
	449	 1	 0.0	 0.0	 0.0	 29.42	 0	    1.02407	   -2.40336	 380.0	 5	    1.10000	    0.90000;
	453	 2	 0.0	 0.0	 0.0	 0.0	 0	    1.06626	   -1.07272	 380.0	 5	    1.10000	    0.90000;
	455	 1	 274.32	 5.66	 0.0	 13.24	 0	    1.06802	  -17.41684	 220.0	 5	    1.10000	    0.90000;
	472	 1	 336.2	 131.6	 0.0	 64.01	 0	    1.08611	  -10.39318	 150.0	 8	    1.10000	    0.90000;
	473	 1	 -22.95	 -3.72	 0.0	 14.34	 0	    1.06930	   -4.85291	 220.0	 4	    1.10000	    0.90000;
	477	 1	 0.0	 0.0	 0.0	 70.37	 0	    1.07607	   -6.82594	 380.0	 4	    1.10000	    0.90000;
	481	 1	 -0.0	 0.0	 0.0	 17.44	 0	    1.06548	  -13.60913	 220.0	 4	    1.10000	    0.90000;
	483	 1	 57.26	 15.6	 0.0	 3.43	 0	    1.08933	   -7.45350	 220.0	 4	    1.10000	    0.90000;
	486	 1	 7.01	 2.0	 0.0	 0.44	 0	    1.06570	  -10.40655	 150.0	 8	    1.10000	    0.90000;
	489	 2	 0.0	 0.0	 0.0	 0.0	 0	    1.06312	   -5.56791	 220.0	 4	    1.10000	    0.90000;
	490	 1	 20.52	 4.0	 0.0	 2.77	 0	    1.05758	  -16.62270	 220.0	 5	    1.10000	    0.90000;
	496	 1	 -0.0	 -0.0	 0.0	 10.04	 0	    1.07046	   -5.15115	 150.0	 8	    1.10000	    0.90000;
	500	 1	 144.4	 35.5	 0.0	 7.66	 0	    1.08110	   -6.27698	 220.0	 5	    1.10000	    0.90000;
	502	 1	 -0.0	 0.0	 0.0	 1.96	 0	    1.07740	   -2.39789	 220.0	 5	    1.10000	    0.90000;
	506	 1	 -0.0	 0.0	 0.0	 0.4	 0	    1.08506	   -1.14193	 380.0	 5	    1.10000	    0.90000;
	509	 1	 77.29	 7.0	 0.0	 17.6	 0	    1.08591	  -15.51566	 220.0	 4	    1.10000	    0.90000;
	513	 1	 57.46	 17.1	 0.0	 1.61	 0	    1.07272	   -3.26219	 220.0	 5	    1.10000	    0.90000;
	516	 2	 0.0	 0.0	 0.0	 0.0	 0	    1.09452	  -17.99369	 220.0	 5	    1.10000	    0.90000;
	519	 1	 207.2	 9.4	 0.0	 8.77	 0	    1.07875	   -9.04074	 220.0	 4	    1.10000	    0.90000;
	520	 1	 118.5	 20.4	 0.0	 2.57	 0	    1.09429	   -7.75342	 220.0	 5	    1.10000	    0.90000;
	523	 1	 189.9	 74.7	 0.0	 26.2	 0	    1.08016	  -11.03512	 150.0	 8	    1.10000	    0.90000;
	527	 1	 277.7	 45.4	 0.0	 0.7	 0	    1.06426	   -5.26434	 220.0	 4	    1.10000	    0.90000;
	536	 1	 87.8	 -1.4	 0.079073	 36.047349	 0	    1.08922	  -12.42265	 380.0	 10	    1.10000	    0.90000;
	539	 1	 57.96	 18.9	 0.0	 14.91	 0	    1.06403	  -11.22536	 150.0	 8	    1.10000	    0.90000;
	544	 1	 79.69	 39.6	 0.0	 18.83	 0	    1.07225	  -15.85623	 380.0	 10	    1.10000	    0.90000;
	548	 1	 30.93	 8.9	 0.0	 0.45	 0	    1.04367	  -11.47797	 110.0	 8	    1.10000	    0.90000;
	549	 1	 0.0	 -0.0	 0.0	 5.15	 0	    1.09986	   -5.57603	 220.0	 5	    1.10000	    0.90000;
	550	 1	 0.0	 -0.0	 0.0	 10.0	 0	    1.06543	   -9.34638	 220.0	 4	    1.10000	    0.90000;
	552	 1	 180.8	 90.8	 0.0	 2.42	 0	    0.99291	   -9.37906	 150.0	 10	    1.10000	    0.90000;
	554	 1	 0.0	 -0.0	 0.0	 1.97	 0	    1.06880	  -12.96847	 220.0	 5	    1.10000	    0.90000;
	556	 1	 16.52	 9.0	 0.0	 1.17	 0	    1.05828	  -16.42074	 220.0	 5	    1.10000	    0.90000;
	558	 1	 -0.18	 -3.57	 0.0	 0.0	 0	    1.06128	   -1.44470	 150.0	 8	    1.10000	    0.90000;
	559	 1	 42.25	 16.6	 0.0	 0.0	 0	    1.06403	  -11.86555	 150.0	 8	    1.10000	    0.90000;
	561	 1	 0.0	 -0.0	 0.0	 0.32	 0	    1.09520	   -3.31190	 220.0	 5	    1.10000	    0.90000;
	564	 2	 0.0	 0.0	 0.0	 0.0	 0	    1.09687	  -29.22418	 220.0	 5	    1.10000	    0.90000;
	575	 1	 0.0	 -0.0	 0.0	 0.67	 0	    1.06809	  -10.57467	 220.0	 5	    1.10000	    0.90000;
	577	 1	 -0.13	 -1.0	 0.0	 0.0	 0	    1.04094	   -3.31743	 220.0	 8	    1.10000	    0.90000;
	579	 1	 17.32	 6.6	 0.0	 16.52	 0	    1.08562	   -7.97853	 380.0	 4	    1.10000	    0.90000;
	583	 2	 0.0	 0.0	 0.0	 0.0	 0	    1.09146	   -4.28737	 220.0	 5	    1.10000	    0.90000;
	585	 1	 21.12	 8.3	 0.0	 4.26	 0	    1.07398	  -12.31268	 150.0	 8	    1.10000	    0.90000;
	593	 1	 -0.0	 0.0	 0.0	 29.2	 0	    1.09344	   -1.64640	 380.0	 8	    1.10000	    0.90000;
	594	 1	 67.57	 17.0	 0.0	 5.75	 0	    1.05999	   -0.83603	 220.0	 5	    1.10000	    0.90000;
	595	 1	 47.55	 5.3	 0.0	 7.59	 0	    1.07863	   -9.55149	 220.0	 4	    1.10000	    0.90000;
	597	 1	 33.34	 15.7	 0.0	 64.15	 0	    1.09703	   -8.50559	 380.0	 4	    1.10000	    0.90000;
	601	 1	 140.6	 42.6	 0.0	 5.71	 0	    1.09173	   -6.48559	 220.0	 5	    1.10000	    0.90000;
	602	 1	 110.8	 -8.8	 0.0	 3.15	 0	    1.06557	  -12.70632	 220.0	 4	    1.10000	    0.90000;
	604	 1	 33.24	 4.4	 0.0	 24.54	 0	    1.02568	   -7.90823	 380.0	 5	    1.10000	    0.90000;
	608	 1	 150.9	 10.4	 0.0	 4.77	 0	    1.09616	   -8.07111	 220.0	 5	    1.10000	    0.90000;
	609	 1	 -0.0	 -0.0	 0.0	 5.67	 0	    1.06858	   -8.01469	 220.0	 5	    1.10000	    0.90000;
	610	 1	 -0.0	 0.0	 0.0	 0.91	 0	    1.02248	  -19.55167	 150.0	 10	    1.10000	    0.90000;
	615	 2	 0.0	 0.0	 0.0	 0.0	 0	    1.09778	   -3.68707	 220.0	 5	    1.10000	    0.90000;
	616	 2	 0.0	 0.0	 0.0	 0.0	 0	    1.10000	   -4.88418	 220.0	 5	    1.10000	    0.90000;
	618	 2	 0.0	 0.0	 0.0	 0.0	 0	    1.09399	   -5.02664	 380.0	 4	    1.10000	    0.90000;
	619	 1	 72.88	 14.4	 0.0	 2.96	 0	    1.09430	  -16.64355	 220.0	 5	    1.10000	    0.90000;
	621	 1	 21.42	 8.1	 0.0	 7.38	 0	    1.07194	  -11.45573	 220.0	 4	    1.10000	    0.90000;
	628	 2	 0.0	 0.0	 0.0	 0.0	 0	    0.99929	   -5.25926	 220.0	 10	    1.10000	    0.90000;
	639	 2	 0.0	 0.0	 0.0	 0.0	 0	    1.09705	  -21.66440	 220.0	 5	    1.10000	    0.90000;
	641	 1	 45.32	 18.5	 0.0	 0.74	 0	    1.09626	   -1.29965	 220.0	 5	    1.10000	    0.90000;
	642	 2	 0.0	 0.0	 0.0	 0.0	 0	    1.09454	   -5.65826	 380.0	 4	    1.10000	    0.90000;
	643	 1	 15.52	 6.3	 0.0	 0.6	 0	    1.06457	  -12.30038	 150.0	 8	    1.10000	    0.90000;
	649	 1	 40.94	 19.2	 0.0	 5.2	 0	    1.06584	  -13.83875	 220.0	 4	    1.10000	    0.90000;
	650	 1	 17.22	 4.4	 0.0	 1.71	 0	    1.04218	  -13.31768	 110.0	 8	    1.10000	    0.90000;
	656	 1	 -0.15	 -1.93	 0.0	 0.0	 0	    1.04571	   -8.10373	 220.0	 8	    1.10000	    0.90000;
	658	 1	 258.4	 66.7	 0.0	 5.87	 0	    1.06212	   -7.91054	 220.0	 5	    1.10000	    0.90000;
	659	 1	 -0.0	 -0.0	 0.174507	 73.977052	 0	    1.04114	   -1.97372	 380.0	 2	    1.10000	    0.90000;
	661	 1	 -0.0	 -0.0	 0.0	 0.6	 0	    1.03257	   -2.11430	 380.0	 5	    1.10000	    0.90000;
	662	 1	 0.0	 -0.0	 0.0	 4.14	 0	    1.06367	   -6.61622	 380.0	 8	    1.10000	    0.90000;
	666	 1	 -5.61	 -2.79	 0.0	 150.93	 0	    1.05941	   -2.90234	 380.0	 5	    1.10000	    0.90000;
	676	 1	 109.3	 35.4	 0.0	 1.91	 0	    1.05707	  -11.05802	 150.0	 8	    1.10000	    0.90000;
	678	 1	 232.1	 89.8	 0.0	 0.09	 0	    1.08731	   -2.44724	 220.0	 5	    1.10000	    0.90000;
	682	 2	 0.0	 0.0	 0.0	 0.0	 0	    1.08490	   -5.25720	 220.0	 5	    1.10000	    0.90000;
	686	 2	 0.0	 0.0	 0.0	 0.0	 0	    1.06957	   -4.98143	 220.0	 4	    1.10000	    0.90000;
	687	 1	 -0.0	 0.0	 0.0	 5.6	 0	    1.07494	   -5.14988	 220.0	 5	    1.10000	    0.90000;
	693	 1	 -0.0	 0.0	 0.0	 93.75	 0	    1.08719	   -4.03303	 380.0	 4	    1.10000	    0.90000;
	695	 1	 96.41	 26.5	 0.0	 0.08	 0	    1.02385	   -5.32281	 220.0	 4	    1.10000	    0.90000;
	698	 2	 0.0	 0.0	 0.0	 0.0	 0	    0.99833	   -2.66603	 220.0	 10	    1.10000	    0.90000;
	699	 1	 36.54	 8.4	 0.0	 6.58	 0	    1.07548	   -9.52149	 220.0	 4	    1.10000	    0.90000;
	702	 1	 -0.0	 -0.0	 0.0	 0.48	 0	    1.01327	   -6.00351	 150.0	 10	    1.10000	    0.90000;
	706	 1	 114.8	 22.8	 0.0	 5.66	 0	    1.03931	   -7.54447	 220.0	 4	    1.10000	    0.90000;
	707	 1	 83.99	 21.2	 0.0	 5.36	 0	    1.07252	   -8.40998	 220.0	 5	    1.10000	    0.90000;
	709	 2	 0.0	 0.0	 0.0	 0.0	 0	    1.09337	   -5.06149	 380.0	 4	    1.10000	    0.90000;
	710	 1	 76.38	 5.1	 0.0	 3.97	 0	    1.07921	   -9.27970	 220.0	 4	    1.10000	    0.90000;
	712	 1	 110.4	 41.9	 0.0	 1.88	 0	    1.04898	  -16.53895	 150.0	 8	    1.10000	    0.90000;
	718	 1	 135.11	 41.0	 0.0	 5.31	 0	    1.08367	   -7.90384	 220.0	 5	    1.10000	    0.90000;
	720	 1	 -0.0	 -0.0	 0.0	 23.554121	 0	    1.02637	  -19.19821	 380.0	 5	    1.10000	    0.90000;
	722	 1	 0.0	 -0.0	 0.0	 0.78	 0	    1.06633	  -11.48562	 150.0	 8	    1.10000	    0.90000;
	726	 1	 400.3	 189.9	 0.0	 0.53	 0	    1.06574	   -5.98651	 220.0	 5	    1.10000	    0.90000;
	731	 1	 0.0	 0.0	 0.0	 61.48	 0	    1.08625	   -9.40687	 380.0	 4	    1.10000	    0.90000;
	733	 1	 58.36	 10.7	 0.0	 8.41	 0	    1.03823	  -16.15252	 110.0	 8	    1.10000	    0.90000;
	739	 2	 0.0	 0.0	 0.0	 0.0	 0	    1.07452	   -3.48700	 380.0	 4	    1.10000	    0.90000;
	742	 1	 0.0	 -0.0	 0.0	 2.83	 0	    1.07511	   -5.15139	 220.0	 5	    1.10000	    0.90000;
	747	 1	 69.58	 16.0	 0.0	 3.03	 0	    1.09843	  -20.33750	 220.0	 5	    1.10000	    0.90000;
	749	 2	 0.0	 0.0	 0.0	 0.0	 0	    1.07748	   -5.21369	 220.0	 5	    1.10000	    0.90000;
	750	 1	 -0.0	 -0.0	 0.0	 18.63	 0	    1.08807	  -15.10452	 220.0	 5	    1.10000	    0.90000;
	751	 2	 0.0	 0.0	 0.0	 0.0	 0	    1.06085	   -4.00395	 220.0	 4	    1.10000	    0.90000;
	754	 1	 132.1	 32.4	 0.0	 58.29	 0	    1.08736	   -4.66481	 380.0	 4	    1.10000	    0.90000;
	757	 2	 0.0	 0.0	 0.0	 0.0	 0	    1.05387	   -5.34860	 380.0	 5	    1.10000	    0.90000;
	766	 1	 -0.0	 0.0	 0.0	 7.85	 0	    1.09016	  -13.97779	 220.0	 5	    1.10000	    0.90000;
	769	 1	 152.57	 40.0	 0.0	 6.12	 0	    1.04202	   -9.20347	 220.0	 5	    1.10000	    0.90000;
	772	 1	 343.9	 141.9	 0.0	 5.55	 0	    1.07456	   -7.34221	 220.0	 5	    1.10000	    0.90000;
	775	 1	 -55.14	 -27.14	 0.0	 0.0	 0	    1.08618	  -10.38568	 150.0	 8	    1.10000	    0.90000;
	776	 2	 0.0	 0.0	 0.0	 0.0	 0	    1.09084	   -5.41667	 220.0	 5	    1.10000	    0.90000;
	778	 2	 0.0	 0.0	 0.0	 0.0	 0	    1.09967	   -3.42246	 220.0	 5	    1.10000	    0.90000;
	780	 2	 0.0	 0.0	 0.0	 0.0	 0	    1.03963	  -10.67614	 220.0	 10	    1.10000	    0.90000;
	784	 1	 -26.0	 -14.72	 0.0	 0.0	 0	    1.06460	  -12.18881	 150.0	 8	    1.10000	    0.90000;
	785	 1	 -0.0	 -0.0	 0.0	 4.03	 0	    1.04591	   -4.33190	 220.0	 10	    1.10000	    0.90000;
	789	 1	 -0.0	 -0.0	 0.0	 6.63	 0	    1.09028	   -5.72873	 220.0	 5	    1.10000	    0.90000;
	790	 1	 -0.15	 -1.0	 0.0	 0.42	 0	    1.09965	   -8.35650	 110.0	 8	    1.10000	    0.90000;
	792	 1	 295.3	 41.9	 0.0	 0.0	 0	    1.04094	   -8.85863	 150.0	 2	    1.10000	    0.90000;
	795	 2	 0.0	 0.0	 0.0	 0.0	 0	    1.10000	   -0.79178	 220.0	 5	    1.10000	    0.90000;
	797	 1	 2.0	 114.6	 0.0	 16.15	 0	    1.04082	   -3.81232	 220.0	 4	    1.10000	    0.90000;
	800	 1	 50.56	 18.0	 0.0	 0.11	 0	    1.05895	  -10.95994	 220.0	 5	    1.10000	    0.90000;
	803	 2	 0.0	 0.0	 0.0	 0.0	 0	    1.09847	   -5.78450	 220.0	 5	    1.10000	    0.90000;
	804	 1	 -0.0	 -0.0	 0.0	 7.26	 0	    1.10000	   -4.19800	 220.0	 5	    1.10000	    0.90000;
	805	 1	 124.5	 29.6	 0.0	 15.4	 0	    1.09832	   -6.30216	 220.0	 5	    1.10000	    0.90000;
	806	 1	 -0.0	 -0.0	 0.0	 32.02	 0	    1.04893	   -6.56898	 380.0	 8	    1.10000	    0.90000;
	807	 2	 0.0	 0.0	 0.0	 0.0	 0	    1.09939	   -3.48173	 380.0	 4	    1.10000	    0.90000;
	808	 1	 24.53	 8.6	 0.0	 7.01	 0	    1.08412	   -8.54723	 220.0	 4	    1.10000	    0.90000;
	809	 1	 0.0	 -0.0	 0.0	 58.088687	 0	    1.03903	   -1.77324	 380.0	 5	    1.10000	    0.90000;
	814	 1	 287.7	 16.3	 0.0	 12.86	 0	    1.08410	   -7.22401	 380.0	 4	    1.10000	    0.90000;
	819	 1	 0.0	 -0.0	 0.0	 0.22	 0	    1.08662	   -2.87480	 220.0	 5	    1.10000	    0.90000;
	823	 2	 0.0	 0.0	 0.0	 0.0	 0	    1.02185	    0.94263	 380.0	 5	    1.10000	    0.90000;
	838	 1	 615.81	 286.69	 0.0	 101.04	 0	    1.06786	  -13.67386	 150.0	 8	    1.10000	    0.90000;
	839	 1	 -0.0	 -0.0	 0.0	 8.17514	 0	    1.03698	   -2.44175	 380.0	 5	    1.10000	    0.90000;
	849	 2	 0.0	 0.0	 0.0	 0.0	 0	    1.07884	   -3.79327	 380.0	 4	    1.10000	    0.90000;
	851	 2	 0.0	 0.0	 0.0	 0.0	 0	    1.09984	   -1.43799	 220.0	 5	    1.10000	    0.90000;
	854	 1	 49.96	 7.5	 0.0	 8.86	 0	    1.07242	  -12.47082	 220.0	 4	    1.10000	    0.90000;
	858	 2	 0.0	 0.0	 0.0	 0.0	 0	    1.03992	   -1.23345	 380.0	 5	    1.10000	    0.90000;
	869	 1	 94.2	 5.5	 0.0	 6.51	 0	    1.06584	  -12.26774	 220.0	 4	    1.10000	    0.90000;
	870	 1	 110.0	 3.4	 0.0	 11.95	 0	    1.08774	  -15.24879	 220.0	 5	    1.10000	    0.90000;
	871	 1	 108.89	 -21.76	 0.0	 3.72	 0	    1.09156	   -4.24833	 220.0	 5	    1.10000	    0.90000;
	878	 1	 0.0	 -0.0	 0.0	 25.28	 0	    1.08040	   -6.84535	 150.0	 8	    1.10000	    0.90000;
	883	 1	 192.5	 78.3	 0.0	 6.65	 0	    1.06503	   -6.64066	 220.0	 5	    1.10000	    0.90000;
	891	 2	 0.0	 0.0	 0.0	 0.0	 0	    1.08099	   -4.28609	 380.0	 5	    1.10000	    0.90000;
	892	 1	 -0.0	 -0.0	 0.0	 9.1	 0	    1.08900	  -19.48538	 220.0	 5	    1.10000	    0.90000;
	898	 1	 25.63	 7.9	 0.0	 0.77	 0	    1.04071	  -11.68898	 110.0	 8	    1.10000	    0.90000;
	900	 1	 0.0	 0.0	 0.0	 0.15	 0	    1.08166	   -7.37266	 220.0	 5	    1.10000	    0.90000;
	903	 1	 82.69	 20.1	 0.0	 1.36	 0	    1.09840	  -20.36145	 220.0	 5	    1.10000	    0.90000;
	905	 1	 631.71	 -54.16	 0.0	 7.534129	 0	    1.07012	   -4.93045	 380.0	 5	    1.10000	    0.90000;
	907	 1	 -0.0	 -0.0	 0.0	 0.05	 0	    1.09277	   -3.76724	 220.0	 5	    1.10000	    0.90000;
	908	 1	 125.9	 -0.5	 0.0	 0.21	 0	    1.09792	   -1.93168	 220.0	 5	    1.10000	    0.90000;
	913	 2	 0.0	 0.0	 0.0	 0.0	 0	    1.05847	   -1.95613	 380.0	 2	    1.10000	    0.90000;
	916	 2	 0.0	 0.0	 0.0	 0.0	 0	    1.04149	   -3.53820	 220.0	 4	    1.10000	    0.90000;
	919	 1	 -0.0	 0.0	 0.0	 13.89	 0	    1.05394	   -6.89453	 380.0	 8	    1.10000	    0.90000;
	920	 1	 34.44	 8.5	 0.0	 1.11	 0	    1.08953	  -12.54734	 220.0	 5	    1.10000	    0.90000;
	923	 1	 62.07	 14.7	 0.0	 4.84	 0	    1.05684	  -16.70736	 220.0	 5	    1.10000	    0.90000;
	928	 1	 112.9	 19.3	 0.0	 17.34	 0	    1.06190	  -12.76789	 150.0	 8	    1.10000	    0.90000;
	929	 1	 43.75	 12.4	 0.0	 9.35	 0	    1.06528	  -11.81800	 220.0	 4	    1.10000	    0.90000;
	930	 2	 0.0	 0.0	 0.0	 0.0	 0	    1.07760	   -3.78484	 380.0	 4	    1.10000	    0.90000;
	932	 1	 77.59	 12.3	 0.0	 5.1	 0	    1.07303	  -12.24180	 220.0	 4	    1.10000	    0.90000;
	933	 1	 -0.0	 0.0	 0.0	 22.75	 0	    1.07704	   -8.68034	 220.0	 5	    1.10000	    0.90000;
	935	 1	 -0.0	 0.0	 0.0	 9.46	 0	    1.09632	  -15.92535	 220.0	 5	    1.10000	    0.90000;
	947	 1	 90.7	 5.8	 0.0	 4.1	 0	    1.04323	   -6.52553	 220.0	 4	    1.10000	    0.90000;
	948	 1	 15.82	 4.0	 0.0	 0.7	 0	    1.02291	  -19.17443	 150.0	 10	    1.10000	    0.90000;
	950	 1	 69.08	 22.6	 0.0	 0.54	 0	    1.06682	  -12.83749	 150.0	 8	    1.10000	    0.90000;
	953	 1	 108.7	 -12.15	 0.0	 37.11	 0	    1.05858	   -4.16763	 380.0	 5	    1.10000	    0.90000;
	954	 1	 66.27	 13.6	 0.0	 0.67	 0	    1.09412	  -11.83664	 220.0	 5	    1.10000	    0.90000;
	955	 1	 244.2	 152.7	 0.0	 0.0	 0	    1.03652	  -11.66395	 150.0	 2	    1.10000	    0.90000;
	957	 1	 65.77	 16.1	 0.0	 1.66	 0	    1.06189	   -5.13768	 220.0	 4	    1.10000	    0.90000;
	960	 1	 -0.0	 -0.0	 0.0	 108.728602	 0	    1.08506	   -1.14193	 380.0	 5	    1.10000	    0.90000;
	962	 1	 42.55	 17.1	 0.0	 1.67	 0	    1.06914	   -9.90512	 220.0	 4	    1.10000	    0.90000;
	964	 1	 88.5	 16.5	 0.0	 146.44	 0	    1.05739	   -4.31647	 380.0	 5	    1.10000	    0.90000;
	970	 1	 62.27	 -2.1	 0.0	 8.01	 0	    1.04872	   -3.87648	 220.0	 4	    1.10000	    0.90000;
	972	 2	 0.0	 0.0	 0.0	 0.0	 0	    1.06135	    1.01297	 380.0	 5	    1.30000	    0.70000;
	976	 2	 0.0	 0.0	 0.0	 0.0	 0	    1.09402	   -5.50567	 380.0	 4	    1.10000	    0.90000;
	980	 1	 14.71	 4.6	 0.0	 7.88	 0	    1.09467	  -16.53887	 220.0	 5	    1.10000	    0.90000;
	981	 1	 0.0	 -0.0	 0.0	 0.84	 0	    1.06040	   -4.16280	 220.0	 4	    1.10000	    0.90000;
	986	 1	 15.98	 0.86	 0.0	 5.96	 0	    1.06441	   -9.95494	 220.0	 4	    1.10000	    0.90000;
	987	 1	 -0.0	 0.0	 0.0	 1.18	 0	    1.01919	   -6.08126	 150.0	 10	    1.10000	    0.90000;
	988	 1	 -0.0	 -0.0	 0.0	 8.62	 0	    1.07090	  -11.39870	 220.0	 4	    1.10000	    0.90000;
	994	 1	 -0.0	 -0.0	 0.0	 25.0	 0	    1.06561	  -12.29753	 150.0	 8	    1.10000	    0.90000;
	999	 1	 20.02	 6.8	 0.0	 0.48	 0	    1.02339	   -8.32267	 110.0	 8	    1.10000	    0.90000;
	1000	 1	 0.0	 -0.0	 0.0	 1.8	 0	    1.02439	   -4.16207	 220.0	 1	    1.10000	    0.90000;
	1001	 2	 0.0	 0.0	 0.0	 0.0	 0	    1.09308	  -18.17534	 220.0	 5	    1.10000	    0.90000;
	1002	 2	 0.0	 0.0	 0.0	 0.0	 0	    1.08838	  -11.89003	 220.0	 5	    1.10000	    0.90000;
	1005	 1	 0.0	 0.0	 0.0	 0.81	 0	    1.09649	   -4.87965	 220.0	 5	    1.10000	    0.90000;
	1010	 1	 21.32	 7.3	 0.0	 0.6	 0	    1.02656	   -6.26383	 110.0	 8	    1.10000	    0.90000;
	1011	 1	 -0.2	 -1.0	 0.0	 0.0	 0	    1.06947	  -18.03990	 150.0	 8	    1.10000	    0.90000;