%%%%%%%%%%%%%%%%%%%%%%%%%%%%%%%%%%%%%%%%%%%%%%%%%%%%%%%%%%%%%%%%%%%%%%%%%%%
%%%%                                                                  %%%%%
%%%%    IEEE PES Power Grid Library - Optimal Power Flow - v17.07     %%%%%
%%%%          (https://github.com/power-grid-lib/pglib-opf)           %%%%%
%%%%             Benchmark Group - Small Angle Difference             %%%%%
%%%%                         27 - June - 2017                         %%%%%
%%%%                                                                  %%%%%
%%%%%%%%%%%%%%%%%%%%%%%%%%%%%%%%%%%%%%%%%%%%%%%%%%%%%%%%%%%%%%%%%%%%%%%%%%%
function mpc = pglib_opf_case2736sp_mp__sad
mpc.version = '2';
mpc.baseMVA = 100.0;

%% area data
%	area	refbus
mpc.areas = [
	1	 18;
];

%% bus data
%	bus_i	type	Pd	Qd	Gs	Bs	area	Vm	Va	baseKV	zone	Vmax	Vmin
mpc.bus = [
	1	 1	 0.0	 0.0	 0.0	 0.0	 1	    1.10175	    0.38643	 220.0	 1	    1.11000	    0.95000;
	2	 1	 0.0	 0.0	 0.0	 0.0	 1	    1.10732	    2.40374	 220.0	 1	    1.11000	    0.95000;
	3	 1	 0.0	 0.0	 0.0	 0.0	 1	    1.08338	  -16.37179	 220.0	 1	    1.11000	    0.95000;
	4	 1	 0.0	 0.0	 0.0	 0.0	 1	    1.09573	   -2.19509	 220.0	 1	    1.11000	    0.95000;
	5	 1	 0.0	 0.0	 0.0	 0.0	 1	    1.09575	   -2.19575	 220.0	 1	    1.11000	    0.95000;
	6	 1	 0.0	 0.0	 0.0	 0.0	 1	    1.06968	   -9.77393	 220.0	 1	    1.11000	    0.95000;
	7	 1	 0.0	 0.0	 0.0	 0.0	 1	    1.06980	   -9.76422	 220.0	 1	    1.11000	    0.95000;
	8	 1	 0.0	 0.0	 0.0	 0.0	 1	    1.03110	   -6.49905	 400.0	 1	    1.05000	    0.95000;
	9	 1	 0.0	 0.0	 0.0	 0.0	 1	    1.03110	   -6.49191	 400.0	 1	    1.05000	    0.95000;
	10	 1	 0.0	 0.0	 0.0	 0.0	 1	    1.06294	   -9.82513	 220.0	 1	    1.11000	    0.95000;
	11	 1	 0.0	 0.0	 0.0	 0.0	 1	    1.06287	   -9.83523	 220.0	 1	    1.11000	    0.95000;
	12	 1	 0.0	 0.0	 0.0	 0.0	 1	    1.06285	   -9.83752	 220.0	 1	    1.11000	    0.95000;
	13	 1	 0.0	 0.0	 0.0	 0.0	 1	    1.06281	   -9.84701	 220.0	 1	    1.11000	    0.95000;
	14	 1	 0.0	 0.0	 0.0	 0.0	 1	    1.02554	   -5.99148	 400.0	 1	    1.05000	    0.95000;
	15	 1	 0.0	 0.0	 0.0	 0.0	 1	    1.03553	   -8.76688	 400.0	 1	    1.05000	    0.95000;
	16	 1	 0.0	 0.0	 0.0	 0.0	 1	    1.03553	   -8.76688	 400.0	 1	    1.05000	    0.95000;
	17	 2	 0.0	 0.0	 0.0	 0.0	 1	    1.09322	  -13.41509	 220.0	 1	    1.11000	    0.95000;
	18	 1	 0.0	 0.0	 0.0	 0.0	 1	    1.09326	  -13.41197	 220.0	 1	    1.11000	    0.95000;
	19	 1	 0.0	 0.0	 0.0	 0.0	 1	    1.09937	   -1.42376	 220.0	 1	    1.11000	    0.95000;
	20	 1	 0.0	 0.0	 0.0	 0.0	 1	    1.09940	   -1.41727	 220.0	 1	    1.11000	    0.95000;
	21	 1	 0.0	 0.0	 0.0	 0.0	 1	    1.07979	  -10.60893	 220.0	 1	    1.11000	    0.95000;
	22	 1	 0.0	 0.0	 0.0	 0.0	 1	    1.07979	  -10.60893	 220.0	 1	    1.11000	    0.95000;
	23	 1	 0.0	 0.0	 0.0	 0.0	 1	    1.06058	   -9.63177	 220.0	 1	    1.11000	    0.95000;
	24	 1	 0.0	 0.0	 0.0	 0.0	 1	    1.10111	   -0.16782	 220.0	 1	    1.11000	    0.95000;
	25	 1	 0.0	 0.0	 0.0	 0.0	 1	    1.03343	   -7.64243	 400.0	 1	    1.05000	    0.95000;
	26	 2	 61.358	 72.054	 0.0	 0.0	 1	    1.11000	    0.66917	 220.0	 1	    1.11000	    0.95000;
	27	 2	 84.861	 122.06	 0.0	 0.0	 1	    1.11000	    2.71466	 220.0	 1	    1.11000	    0.95000;
	28	 3	 49.0	 74.0	 0.0	 0.0	 1	    1.04997	   -0.00000	 400.0	 1	    1.05000	    0.95000;
	29	 2	 49.0	 74.0	 0.0	 0.0	 1	    1.05000	    0.00581	 400.0	 1	    1.05000	    0.95000;
	30	 1	 0.0	 0.0	 0.0	 0.0	 1	    1.06832	  -10.12133	 220.0	 1	    1.11000	    0.95000;
	31	 1	 0.0	 0.0	 0.0	 0.0	 1	    1.04983	   -1.53587	 400.0	 1	    1.05000	    0.95000;
	32	 1	 0.0	 0.0	 0.0	 0.0	 1	    1.06007	  -10.15435	 220.0	 1	    1.11000	    0.95000;
	33	 1	 0.0	 0.0	 0.0	 0.0	 1	    1.10068	   -3.28153	 220.0	 1	    1.11000	    0.95000;
	34	 1	 0.0	 0.0	 0.0	 0.0	 1	    1.08141	   -4.78389	 220.0	 2	    1.11000	    0.95000;
	35	 1	 0.0	 0.0	 0.0	 0.0	 1	    1.07879	   -6.94562	 220.0	 2	    1.11000	    0.95000;
	36	 1	 0.0	 0.0	 0.0	 0.0	 1	    1.08700	   -5.90424	 220.0	 2	    1.11000	    0.95000;
	37	 1	 0.0	 0.0	 0.0	 0.0	 1	    1.08699	   -5.90810	 220.0	 2	    1.11000	    0.95000;
	38	 1	 0.0	 0.0	 0.0	 0.0	 1	    1.07174	   -6.20908	 220.0	 2	    1.11000	    0.95000;
	39	 1	 0.0	 0.0	 0.0	 0.0	 1	    1.11000	   -6.02282	 220.0	 2	    1.11000	    0.95000;
	40	 1	 0.0	 0.0	 0.0	 0.0	 1	    1.10988	   -6.03224	 220.0	 2	    1.11000	    0.95000;
	41	 1	 0.0	 0.0	 0.0	 0.0	 1	    1.02369	   -5.32865	 400.0	 2	    1.05000	    0.95000;
	42	 2	 25.0	 0.0	 0.0	 0.0	 1	    1.09972	   -2.18270	 220.0	 2	    1.11000	    0.95000;
	43	 2	 26.0	 0.0	 0.0	 0.0	 1	    1.09966	   -2.15503	 220.0	 2	    1.11000	    0.95000;
	44	 2	 25.0	 0.0	 0.0	 0.0	 1	    1.03348	   -3.13067	 400.0	 2	    1.05000	    0.95000;
	45	 1	 0.0	 0.0	 0.0	 0.0	 1	    1.03344	   -3.12968	 400.0	 2	    1.05000	    0.95000;
	46	 1	 0.0	 0.0	 0.0	 0.0	 1	    1.10661	   -6.46966	 220.0	 2	    1.11000	    0.95000;
	47	 1	 0.0	 0.0	 0.0	 0.0	 1	    1.03745	   -8.83649	 400.0	 2	    1.05000	    0.95000;
	48	 1	 0.0	 0.0	 0.0	 0.0	 1	    1.03742	   -8.84247	 400.0	 2	    1.05000	    0.95000;
	49	 1	 0.0	 0.0	 0.0	 0.0	 1	    1.03987	   -3.73430	 400.0	 2	    1.05000	    0.95000;
	50	 1	 0.0	 0.0	 0.0	 0.0	 1	    1.07932	   -5.27571	 220.0	 2	    1.11000	    0.95000;
	51	 1	 0.0	 0.0	 0.0	 0.0	 1	    1.07930	   -5.27305	 220.0	 2	    1.11000	    0.95000;
	52	 1	 0.0	 0.0	 0.0	 0.0	 1	    1.04088	   -4.54063	 400.0	 2	    1.05000	    0.95000;
	53	 1	 0.0	 0.0	 0.0	 0.0	 1	    1.04089	   -4.54328	 400.0	 2	    1.05000	    0.95000;
	54	 2	 13.0	 0.0	 0.0	 0.0	 1	    1.09076	   -5.33695	 220.0	 2	    1.11000	    0.95000;
	55	 2	 13.0	 0.0	 0.0	 0.0	 1	    1.09073	   -5.33779	 220.0	 2	    1.11000	    0.95000;
	56	 2	 13.0	 0.0	 0.0	 0.0	 1	    1.04549	   -4.56214	 400.0	 2	    1.05000	    0.95000;
	57	 2	 26.0	 0.0	 0.0	 0.0	 1	    1.04547	   -4.56033	 400.0	 2	    1.05000	    0.95000;
	58	 2	 89.067	 40.0	 0.0	 0.0	 1	    1.09246	   -3.34040	 220.0	 2	    1.11000	    0.95000;
	59	 1	 0.0	 0.0	 0.0	 0.0	 1	    1.09247	   -3.34049	 220.0	 2	    1.11000	    0.95000;
	60	 1	 0.0	 0.0	 0.0	 0.0	 1	    1.10146	   -6.63574	 220.0	 2	    1.11000	    0.95000;
	61	 1	 0.0	 0.0	 0.0	 0.0	 1	    1.09938	   -4.01681	 220.0	 2	    1.11000	    0.95000;
	62	 1	 0.0	 0.0	 0.0	 0.0	 1	    1.09934	   -4.01270	 220.0	 2	    1.11000	    0.95000;
	63	 1	 0.0	 0.0	 0.0	 0.0	 1	    1.04836	   -6.36250	 400.0	 2	    1.05000	    0.95000;
	64	 1	 0.0	 0.0	 0.0	 0.0	 1	    1.04831	   -6.37419	 400.0	 2	    1.05000	    0.95000;
	65	 1	 0.0	 0.0	 0.0	 0.0	 1	    1.08194	   -6.11505	 220.0	 2	    1.11000	    0.95000;
	66	 1	 0.0	 0.0	 0.0	 0.0	 1	    1.08338	   -5.95418	 220.0	 2	    1.11000	    0.95000;
	67	 1	 0.0	 0.0	 0.0	 0.0	 1	    1.07994	   -4.62190	 220.0	 2	    1.11000	    0.95000;
	68	 1	 0.0	 0.0	 0.0	 0.0	 1	    1.09856	   -4.71162	 220.0	 3	    1.11000	    0.95000;
	69	 1	 10.327	 0.0	 0.0	 0.0	 1	    1.08875	   -8.03758	 220.0	 3	    1.11000	    0.95000;
	70	 1	 8.032	 3.714	 0.0	 0.0	 1	    1.08860	   -8.02578	 220.0	 3	    1.11000	    0.95000;
	71	 1	 0.0	 0.0	 0.0	 0.0	 1	    1.07711	   -8.99961	 220.0	 3	    1.11000	    0.95000;
	72	 1	 0.0	 0.0	 0.0	 0.0	 1	    1.07714	   -8.98598	 220.0	 3	    1.11000	    0.95000;
	73	 1	 0.0	 0.0	 0.0	 0.0	 1	    1.09446	   -7.77607	 220.0	 3	    1.11000	    0.95000;
	74	 1	 0.0	 0.0	 0.0	 0.0	 1	    1.09441	   -7.78228	 220.0	 3	    1.11000	    0.95000;
	75	 1	 0.0	 0.0	 0.0	 0.0	 1	    1.08146	  -10.27472	 220.0	 3	    1.11000	    0.95000;
	76	 1	 0.0	 0.0	 0.0	 0.0	 1	    1.08135	  -10.28319	 220.0	 3	    1.11000	    0.95000;
	77	 2	 27.0	 70.0	 0.0	 0.0	 1	    1.07984	   -8.06384	 220.0	 3	    1.11000	    0.95000;
	78	 2	 18.7	 42.0	 0.0	 0.0	 1	    1.08158	   -7.73487	 220.0	 3	    1.11000	    0.95000;
	79	 1	 4.934	 0.817	 0.0	 0.0	 1	    1.07775	   -8.92484	 220.0	 3	    1.11000	    0.95000;
	80	 1	 0.0	 0.0	 0.0	 0.0	 1	    1.07773	   -8.92709	 220.0	 3	    1.11000	    0.95000;
	81	 2	 18.0	 57.0	 0.0	 0.0	 1	    1.05000	   -4.15075	 400.0	 3	    1.05000	    0.95000;
	82	 1	 0.0	 0.0	 0.0	 0.0	 1	    1.08935	   -5.81486	 220.0	 3	    1.11000	    0.95000;
	83	 1	 0.0	 0.0	 0.0	 0.0	 1	    1.08958	   -8.90171	 220.0	 3	    1.11000	    0.95000;
	84	 1	 0.0	 0.0	 0.0	 0.0	 1	    1.08952	   -8.90056	 220.0	 3	    1.11000	    0.95000;
	85	 1	 44.864	 -6.4	 0.0	 0.0	 1	    1.09897	   -4.91223	 220.0	 3	    1.11000	    0.95000;
	86	 1	 0.0	 0.0	 0.0	 0.0	 1	    1.09894	   -4.92032	 220.0	 3	    1.11000	    0.95000;
	87	 1	 0.0	 0.0	 0.0	 0.0	 1	    1.08218	   -8.55209	 220.0	 3	    1.11000	    0.95000;
	88	 1	 0.0	 0.0	 0.0	 0.0	 1	    1.08210	   -8.55341	 220.0	 3	    1.11000	    0.95000;
	89	 1	 0.0	 0.0	 0.0	 0.0	 1	    1.10051	   -4.32189	 220.0	 3	    1.11000	    0.95000;
	90	 1	 0.0	 0.0	 0.0	 0.0	 1	    1.10053	   -4.32073	 220.0	 3	    1.11000	    0.95000;
	91	 1	 0.0	 0.0	 0.0	 0.0	 1	    1.04828	   -2.56876	 400.0	 3	    1.05000	    0.95000;
	92	 1	 0.0	 0.0	 0.0	 0.0	 1	    1.04828	   -2.57105	 400.0	 3	    1.05000	    0.95000;
	93	 1	 0.0	 0.0	 0.0	 0.0	 1	    1.08697	   -8.87515	 220.0	 3	    1.11000	    0.95000;
	94	 1	 0.0	 0.0	 0.0	 0.0	 1	    1.08700	   -8.88144	 220.0	 3	    1.11000	    0.95000;
	95	 1	 0.0	 0.0	 0.0	 0.0	 1	    1.09379	   -6.92045	 220.0	 3	    1.11000	    0.95000;
	96	 1	 0.0	 0.0	 0.0	 0.0	 1	    1.09377	   -6.91509	 220.0	 3	    1.11000	    0.95000;
	97	 2	 12.49	 3.696	 0.0	 0.0	 1	    1.08465	   -7.38105	 220.0	 3	    1.11000	    0.95000;
	98	 1	 17.327	 6.126	 0.0	 0.0	 1	    1.08468	   -7.37829	 220.0	 3	    1.11000	    0.95000;
	99	 1	 0.0	 0.0	 0.0	 0.0	 1	    1.08880	   -8.00810	 220.0	 3	    1.11000	    0.95000;
	100	 1	 0.0	 0.0	 0.0	 0.0	 1	    1.08880	   -8.01308	 220.0	 3	    1.11000	    0.95000;
	101	 1	 0.0	 0.0	 0.0	 0.0	 1	    1.07445	  -10.72755	 220.0	 3	    1.11000	    0.95000;
	102	 1	 0.0	 0.0	 0.0	 0.0	 1	    1.07441	  -10.72858	 220.0	 3	    1.11000	    0.95000;
	103	 2	 14.0	 40.0	 0.0	 0.0	 1	    1.09404	   -8.85478	 220.0	 3	    1.11000	    0.95000;
	104	 2	 0.0	 0.0	 0.0	 0.0	 1	    1.09396	   -8.88281	 220.0	 3	    1.11000	    0.95000;
	105	 2	 7.0	 18.0	 0.0	 0.0	 1	    1.08887	   -8.16547	 220.0	 3	    1.11000	    0.95000;
	106	 2	 0.0	 0.0	 0.0	 0.0	 1	    1.08875	   -8.16332	 220.0	 3	    1.11000	    0.95000;
	107	 1	 0.0	 13.892	 0.0	 0.0	 1	    1.08924	   -6.87158	 220.0	 3	    1.11000	    0.95000;
	108	 1	 73.779	 8.097	 0.0	 0.0	 1	    1.08924	   -6.88102	 220.0	 3	    1.11000	    0.95000;
	109	 1	 0.0	 0.0	 0.0	 0.0	 1	    1.07228	   -9.69761	 220.0	 3	    1.11000	    0.95000;
	110	 1	 0.0	 0.0	 0.0	 0.0	 1	    1.08296	   -8.38372	 220.0	 3	    1.11000	    0.95000;
	111	 1	 0.0	 0.0	 0.0	 0.0	 1	    1.08294	   -8.38652	 220.0	 3	    1.11000	    0.95000;
	112	 1	 0.0	 0.0	 0.0	 0.0	 1	    1.07557	   -9.08065	 220.0	 3	    1.11000	    0.95000;
	113	 1	 0.0	 0.0	 0.0	 0.0	 1	    1.07560	   -9.07310	 220.0	 3	    1.11000	    0.95000;
	114	 1	 0.0	 0.0	 0.0	 0.0	 1	    1.04239	   -6.15959	 400.0	 3	    1.05000	    0.95000;
	115	 2	 0.0	 0.0	 0.0	 0.0	 1	    1.08062	   -7.94221	 220.0	 3	    1.11000	    0.95000;
	116	 2	 8.0	 15.0	 0.0	 0.0	 1	    1.08061	   -7.94016	 220.0	 3	    1.11000	    0.95000;
	117	 2	 5.5	 10.0	 0.0	 0.0	 1	    1.07747	   -8.77762	 220.0	 3	    1.11000	    0.95000;
	118	 1	 0.0	 0.0	 0.0	 0.0	 1	    1.07749	   -8.78202	 220.0	 3	    1.11000	    0.95000;
	119	 1	 0.0	 0.0	 0.0	 0.0	 1	    1.04878	   -5.96451	 400.0	 3	    1.05000	    0.95000;
	120	 1	 0.0	 0.0	 0.0	 0.0	 1	    1.04882	   -5.95935	 400.0	 3	    1.05000	    0.95000;
	121	 1	 0.0	 0.0	 0.0	 0.0	 1	    1.04998	   -5.39762	 400.0	 3	    1.05000	    0.95000;
	122	 1	 0.0	 0.0	 0.0	 0.0	 1	    1.05000	   -5.38828	 400.0	 3	    1.05000	    0.95000;
	123	 1	 0.0	 0.0	 0.0	 0.0	 1	    1.07138	   -9.76679	 220.0	 3	    1.11000	    0.95000;
	124	 2	 11.0	 17.5	 0.0	 0.0	 1	    1.10325	   -6.56960	 220.0	 3	    1.11000	    0.95000;
	125	 2	 41.353	 61.2	 0.0	 0.0	 1	    1.10325	   -6.55995	 220.0	 3	    1.11000	    0.95000;
	126	 2	 14.0	 33.0	 0.0	 0.0	 1	    1.04013	   -5.96895	 400.0	 3	    1.05000	    0.95000;
	127	 1	 0.0	 0.0	 0.0	 0.0	 1	    1.04010	   -5.97118	 400.0	 3	    1.05000	    0.95000;
	128	 1	 0.0	 0.0	 0.0	 0.0	 1	    1.09826	   -5.08057	 220.0	 3	    1.11000	    0.95000;
	129	 1	 0.0	 0.0	 0.0	 0.0	 1	    1.09823	   -5.08257	 220.0	 3	    1.11000	    0.95000;
	130	 1	 0.0	 0.0	 0.0	 0.0	 1	    1.09856	   -4.91563	 220.0	 3	    1.11000	    0.95000;
	131	 2	 1.5	 9.0	 0.0	 0.0	 1	    1.08422	   -9.91121	 220.0	 3	    1.11000	    0.95000;
	132	 2	 0.0	 0.0	 0.0	 0.0	 1	    1.08138	  -10.28342	 220.0	 3	    1.11000	    0.95000;
	133	 2	 11.215	 8.3	 0.0	 0.0	 1	    1.11000	   -3.40409	 220.0	 4	    1.11000	    0.95000;
	134	 2	 10.333	 7.7	 0.0	 0.0	 1	    1.10999	   -3.40658	 220.0	 4	    1.11000	    0.95000;
	135	 1	 0.0	 0.0	 0.0	 0.0	 1	    1.08050	   -7.38663	 220.0	 4	    1.11000	    0.95000;
	136	 1	 0.0	 0.0	 0.0	 0.0	 1	    1.08164	   -6.06883	 220.0	 4	    1.11000	    0.95000;
	137	 1	 0.0	 0.0	 0.0	 0.0	 1	    1.01206	   -7.17530	 400.0	 4	    1.05000	    0.95000;
	138	 1	 0.0	 0.0	 0.0	 0.0	 1	    1.01210	   -7.17874	 400.0	 4	    1.05000	    0.95000;
	139	 1	 0.0	 0.0	 0.0	 0.0	 1	    1.09606	  -10.26757	 220.0	 4	    1.11000	    0.95000;
	140	 1	 0.0	 0.0	 0.0	 0.0	 1	    1.09159	   -6.81953	 220.0	 4	    1.11000	    0.95000;
	141	 1	 0.0	 0.0	 0.0	 0.0	 1	    1.09159	   -6.81953	 220.0	 4	    1.11000	    0.95000;
	142	 1	 0.0	 0.0	 0.0	 0.0	 1	    1.09344	   -8.62944	 220.0	 4	    1.11000	    0.95000;
	143	 1	 0.0	 0.0	 0.0	 0.0	 1	    1.08032	   -9.08469	 220.0	 4	    1.11000	    0.95000;
	144	 1	 0.0	 0.0	 0.0	 0.0	 1	    1.08032	   -9.08469	 220.0	 4	    1.11000	    0.95000;
	145	 2	 0.0	 0.0	 0.0	 0.0	 1	    1.10901	   -5.55391	 220.0	 4	    1.11000	    0.95000;
	146	 2	 0.0	 0.0	 0.0	 0.0	 1	    1.10901	   -5.55275	 220.0	 4	    1.11000	    0.95000;
	147	 2	 25.553	 12.9	 0.0	 0.0	 1	    1.10217	   -4.50916	 220.0	 4	    1.11000	    0.95000;
	148	 1	 0.0	 0.0	 0.0	 0.0	 1	    1.10220	   -4.51461	 220.0	 4	    1.11000	    0.95000;
	149	 2	 11.0	 12.0	 0.0	 0.0	 1	    1.05000	   -4.90402	 400.0	 4	    1.05000	    0.95000;
	150	 2	 11.922	 13.7	 0.0	 0.0	 1	    1.04998	   -4.90428	 400.0	 4	    1.05000	    0.95000;
	151	 1	 0.0	 0.0	 0.0	 0.0	 1	    1.07125	  -11.11581	 220.0	 4	    1.11000	    0.95000;
	152	 1	 0.0	 0.0	 0.0	 0.0	 1	    1.09400	   -8.01671	 220.0	 4	    1.11000	    0.95000;
	153	 1	 0.0	 0.0	 0.0	 0.0	 1	    1.09397	   -8.01730	 220.0	 4	    1.11000	    0.95000;
	154	 2	 19.475	 64.3	 0.0	 0.0	 1	    1.08487	   -3.19834	 220.0	 4	    1.11000	    0.95000;
	155	 2	 16.0	 33.0	 0.0	 0.0	 1	    1.08491	   -3.20198	 220.0	 4	    1.11000	    0.95000;
	156	 1	 0.0	 0.0	 0.0	 0.0	 1	    1.00126	   -4.11176	 400.0	 4	    1.05000	    0.95000;
	157	 2	 10.0	 25.0	 0.0	 0.0	 1	    1.00123	   -4.10457	 400.0	 4	    1.05000	    0.95000;
	158	 1	 0.0	 0.0	 0.0	 0.0	 1	    1.09059	   -6.85387	 220.0	 4	    1.11000	    0.95000;
	159	 1	 0.0	 0.0	 0.0	 0.0	 1	    1.09059	   -6.85387	 220.0	 4	    1.11000	    0.95000;
	160	 1	 0.0	 0.0	 0.0	 0.0	 1	    1.02368	   -8.24590	 400.0	 4	    1.05000	    0.95000;
	161	 1	 0.0	 0.0	 0.0	 0.0	 1	    1.02676	   -7.31223	 400.0	 4	    1.05000	    0.95000;
	162	 1	 0.0	 0.0	 0.0	 0.0	 1	    1.02672	   -7.31184	 400.0	 4	    1.05000	    0.95000;
	163	 2	 5.54	 2.93	 0.0	 0.0	 1	    1.11000	   -5.60406	 220.0	 4	    1.11000	    0.95000;
	164	 2	 18.255	 11.5	 0.0	 0.0	 1	    1.11000	   -5.60829	 220.0	 4	    1.11000	    0.95000;
	165	 1	 0.0	 0.0	 0.0	 0.0	 1	    1.11000	   -5.60829	 220.0	 4	    1.11000	    0.95000;
	166	 1	 0.0	 0.0	 0.0	 0.0	 1	    1.08871	  -13.51614	 220.0	 4	    1.11000	    0.95000;
	167	 1	 0.0	 0.0	 0.0	 0.0	 1	    1.09073	   -6.96118	 220.0	 4	    1.11000	    0.95000;
	168	 1	 0.0	 0.0	 0.0	 0.0	 1	    1.09495	  -10.84624	 220.0	 4	    1.11000	    0.95000;
	169	 1	 0.0	 0.0	 0.0	 0.0	 1	    1.09492	  -10.85606	 220.0	 4	    1.11000	    0.95000;
	170	 1	 0.0	 0.0	 0.0	 0.0	 1	    1.02823	   -9.91460	 400.0	 4	    1.05000	    0.95000;
	171	 1	 0.0	 0.0	 0.0	 0.0	 1	    1.02823	   -9.91460	 400.0	 4	    1.05000	    0.95000;
	172	 1	 0.0	 0.0	 0.0	 0.0	 1	    1.06948	   -9.34992	 220.0	 4	    1.11000	    0.95000;
	173	 1	 0.0	 0.0	 0.0	 0.0	 1	    1.06947	   -9.34623	 220.0	 4	    1.11000	    0.95000;
	174	 1	 0.0	 0.0	 0.0	 0.0	 1	    1.08876	   -9.34484	 220.0	 4	    1.11000	    0.95000;
	175	 1	 0.0	 0.0	 0.0	 0.0	 1	    1.07995	   -7.29968	 220.0	 4	    1.11000	    0.95000;
	176	 1	 0.0	 0.0	 0.0	 0.0	 1	    1.07996	   -7.29528	 220.0	 4	    1.11000	    0.95000;
	177	 1	 0.0	 0.0	 0.0	 0.0	 1	    1.08250	   -7.45777	 220.0	 4	    1.11000	    0.95000;
	178	 1	 0.0	 0.0	 0.0	 0.0	 1	    1.08250	   -7.45777	 220.0	 4	    1.11000	    0.95000;
	179	 2	 3.13	 1.5	 0.0	 0.0	 1	    1.10512	   -6.75450	 220.0	 4	    1.11000	    0.95000;
	180	 1	 0.0	 0.0	 0.0	 0.0	 1	    1.06823	  -10.03999	 220.0	 4	    1.11000	    0.95000;
	181	 1	 0.0	 0.0	 0.0	 0.0	 1	    1.06934	  -11.88313	 220.0	 5	    1.11000	    0.95000;
	182	 1	 0.0	 0.0	 0.0	 0.0	 1	    1.08685	  -10.57770	 220.0	 5	    1.11000	    0.95000;
	183	 1	 0.0	 0.0	 0.0	 0.0	 1	    1.03316	   -8.92173	 400.0	 5	    1.05000	    0.95000;
	184	 1	 0.0	 0.0	 0.0	 0.0	 1	    1.03321	   -8.91781	 400.0	 5	    1.05000	    0.95000;
	185	 1	 0.0	 0.0	 0.0	 0.0	 1	    1.01255	  -10.23788	 400.0	 5	    1.05000	    0.95000;
	186	 1	 0.0	 0.0	 0.0	 0.0	 1	    1.01256	  -10.23893	 400.0	 5	    1.05000	    0.95000;
	187	 1	 0.0	 0.0	 0.0	 0.0	 1	    1.06837	  -13.76628	 220.0	 5	    1.11000	    0.95000;
	188	 1	 0.0	 0.0	 0.0	 0.0	 1	    1.06840	  -13.76525	 220.0	 5	    1.11000	    0.95000;
	189	 1	 0.0	 0.0	 0.0	 0.0	 1	    1.06921	  -11.39690	 220.0	 5	    1.11000	    0.95000;
	190	 1	 0.0	 0.0	 0.0	 0.0	 1	    1.06918	  -11.40469	 220.0	 5	    1.11000	    0.95000;
	191	 1	 0.0	 0.0	 0.0	 0.0	 1	    1.00987	  -11.25800	 400.0	 5	    1.05000	    0.95000;
	192	 1	 0.0	 0.0	 0.0	 0.0	 1	    1.07343	  -11.20525	 220.0	 5	    1.11000	    0.95000;
	193	 1	 0.0	 0.0	 0.0	 0.0	 1	    1.07341	  -11.20037	 220.0	 5	    1.11000	    0.95000;
	194	 1	 0.0	 0.0	 0.0	 0.0	 1	    1.01560	  -12.09693	 400.0	 5	    1.05000	    0.95000;
	195	 1	 0.0	 0.0	 0.0	 0.0	 1	    1.01559	  -12.10154	 400.0	 5	    1.05000	    0.95000;
	196	 1	 0.0	 0.0	 0.0	 0.0	 1	    1.06840	  -15.22909	 220.0	 5	    1.11000	    0.95000;
	197	 1	 0.0	 0.0	 0.0	 0.0	 1	    1.06842	  -15.22935	 220.0	 5	    1.11000	    0.95000;
	198	 1	 0.0	 0.0	 0.0	 -117.0	 1	    1.01737	   -9.04586	 400.0	 5	    1.05000	    0.95000;
	199	 1	 0.0	 0.0	 0.0	 0.0	 1	    1.01745	   -9.04545	 400.0	 5	    1.05000	    0.95000;
	200	 1	 0.0	 0.0	 0.0	 0.0	 1	    1.06460	  -12.62729	 220.0	 5	    1.11000	    0.95000;
	201	 1	 0.0	 0.0	 0.0	 0.0	 1	    1.06460	  -12.62784	 220.0	 5	    1.11000	    0.95000;
	202	 1	 0.0	 0.0	 0.0	 0.0	 1	    1.07003	  -11.84688	 220.0	 5	    1.11000	    0.95000;
	203	 1	 0.0	 0.0	 0.0	 0.0	 1	    1.06997	  -11.85596	 220.0	 5	    1.11000	    0.95000;
	204	 2	 0.0	 0.0	 0.0	 0.0	 1	    1.01030	   -8.22725	 400.0	 5	    1.05000	    0.95000;
	205	 2	 0.0	 0.0	 0.0	 0.0	 1	    1.01029	   -8.22889	 400.0	 5	    1.05000	    0.95000;
	206	 1	 0.0	 0.0	 0.0	 0.0	 1	    1.08265	  -12.64207	 220.0	 5	    1.11000	    0.95000;
	207	 1	 0.0	 0.0	 0.0	 0.0	 1	    1.08265	  -12.63726	 220.0	 5	    1.11000	    0.95000;
	208	 1	 9.59	 1.0	 0.0	 0.0	 1	    1.09075	  -12.74204	 110.0	 1	    1.12000	    0.95000;
	209	 1	 4.795	 0.5	 0.0	 0.0	 1	    1.07400	  -19.89193	 110.0	 1	    1.12000	    0.95000;
	210	 1	 4.262	 2.0	 0.0	 0.0	 1	    1.09856	  -12.87042	 110.0	 1	    1.12000	    0.95000;
	211	 1	 6.5	 5.4	 0.0	 0.0	 1	    1.06940	  -14.19500	 110.0	 1	    1.12000	    0.95000;
	212	 1	 2.877	 0.6	 0.0	 0.0	 1	    1.09792	   -0.04964	 110.0	 1	    1.12000	    0.95000;
	213	 1	 3.197	 0.3	 0.0	 0.0	 1	    1.10111	   -1.76513	 110.0	 1	    1.12000	    0.95000;
	214	 2	 21.711	 12.3	 0.0	 0.0	 1	    1.11032	  -13.00699	 110.0	 1	    1.12000	    0.95000;
	215	 1	 12.254	 2.0	 0.0	 0.0	 1	    1.11195	  -12.83679	 110.0	 1	    1.12000	    0.95000;
	216	 1	 6.926	 2.0	 0.0	 0.0	 1	    1.11135	  -12.89606	 110.0	 1	    1.12000	    0.95000;
	217	 1	 10.655	 1.5	 0.0	 0.0	 1	    1.11009	  -13.10911	 110.0	 1	    1.12000	    0.95000;
	218	 1	 7.672	 3.0	 0.0	 0.0	 1	    1.08273	  -13.93079	 110.0	 1	    1.12000	    0.95000;
	219	 1	 8.524	 2.0	 0.0	 0.0	 1	    1.08425	  -14.23742	 110.0	 1	    1.12000	    0.95000;
	220	 2	 0.0	 0.0	 0.0	 0.0	 1	    1.10965	  -12.32837	 110.0	 1	    1.12000	    0.95000;
	221	 2	 6.606	 2.1	 0.0	 0.0	 1	    1.09662	   -6.57847	 110.0	 1	    1.12000	    0.95000;
	222	 1	 8.099	 1.5	 0.0	 0.0	 1	    1.09313	  -13.40038	 110.0	 1	    1.12000	    0.95000;
	223	 1	 0.746	 0.1	 0.0	 0.0	 1	    1.08099	   -1.28841	 110.0	 1	    1.12000	    0.95000;
	224	 1	 3.943	 0.2	 0.0	 0.0	 1	    1.09745	  -13.90383	 110.0	 1	    1.12000	    0.95000;
	225	 1	 3.197	 0.5	 0.0	 0.0	 1	    1.09093	  -16.70303	 110.0	 1	    1.12000	    0.95000;
	226	 1	 12.787	 1.0	 0.0	 0.0	 1	    1.10391	  -13.01035	 110.0	 1	    1.12000	    0.95000;
	227	 1	 4.475	 0.7	 0.0	 0.0	 1	    1.09306	  -13.57423	 110.0	 1	    1.12000	    0.95000;
	228	 1	 4.262	 0.7	 0.0	 0.0	 1	    1.09310	  -13.56686	 110.0	 1	    1.12000	    0.95000;
	229	 1	 2.451	 0.98	 0.0	 0.0	 1	    1.11541	   -4.81219	 110.0	 1	    1.12000	    0.95000;
	230	 1	 2.451	 0.98	 0.0	 0.0	 1	    1.09581	   -6.11868	 110.0	 1	    1.12000	    0.95000;
	231	 1	 5.327	 1.0	 0.0	 0.0	 1	    1.08651	  -13.66869	 110.0	 1	    1.12000	    0.95000;
	232	 1	 4.262	 1.0	 0.0	 0.0	 1	    1.10131	   -1.71707	 110.0	 1	    1.12000	    0.95000;
	233	 1	 9.057	 0.4	 0.0	 0.0	 1	    1.07844	   -7.21854	 110.0	 1	    1.12000	    0.95000;
	234	 1	 31.966	 28.001	 0.0	 0.0	 1	    1.08816	   -1.10450	 110.0	 1	    1.12000	    0.95000;
	235	 1	 5.86	 0.8	 0.0	 0.0	 1	    1.08292	  -15.85797	 110.0	 1	    1.12000	    0.95000;
	236	 1	 8.631	 2.94	 0.0	 0.0	 1	    1.11062	   -4.65300	 110.0	 1	    1.12000	    0.95000;
	237	 1	 5.967	 0.2	 0.0	 0.0	 1	    1.08257	  -15.88416	 110.0	 1	    1.12000	    0.95000;
	238	 1	 5.328	 0.5	 0.0	 0.0	 1	    1.09360	  -14.00970	 110.0	 1	    1.12000	    0.95000;
	239	 2	 0.0	 0.0	 0.0	 0.0	 1	    1.08504	  -14.51951	 110.0	 1	    1.12000	    0.95000;
	240	 1	 12.04	 1.0	 0.0	 0.0	 1	    1.07778	  -16.54755	 110.0	 1	    1.12000	    0.95000;
	241	 1	 3.836	 1.18	 0.0	 0.0	 1	    1.10186	   -5.56788	 110.0	 1	    1.12000	    0.95000;
	242	 1	 3.729	 0.4	 0.0	 0.0	 1	    1.11694	   -4.69433	 110.0	 1	    1.12000	    0.95000;
	243	 1	 3.729	 0.4	 0.0	 0.0	 1	    1.11704	   -4.67529	 110.0	 1	    1.12000	    0.95000;
	244	 1	 2.131	 1.1	 0.0	 0.0	 1	    1.10754	  -11.27604	 110.0	 1	    1.12000	    0.95000;
	245	 1	 0.0	 0.0	 0.0	 0.0	 1	    1.10993	    0.70156	 110.0	 1	    1.12000	    0.95000;
	246	 2	 0.0	 5.0	 0.0	 0.0	 1	    1.09969	    3.69399	 22.0	 1	    1.12000	    0.95000;
	247	 1	 7.458	 1.0	 0.0	 0.0	 1	    1.08708	  -18.00433	 110.0	 1	    1.12000	    0.95000;
	248	 1	 2.131	 0.0	 0.0	 0.0	 1	    1.08622	  -18.10370	 110.0	 1	    1.12000	    0.95000;
	249	 1	 2.131	 0.0	 0.0	 0.0	 1	    1.09411	  -17.18796	 110.0	 1	    1.12000	    0.95000;
	250	 1	 2.664	 0.5	 0.0	 0.0	 1	    1.06357	  -21.34824	 110.0	 1	    1.12000	    0.95000;
	251	 1	 3.516	 0.1	 0.0	 0.0	 1	    1.10112	  -12.88866	 110.0	 1	    1.12000	    0.95000;
	252	 1	 11.721	 5.4	 0.0	 0.0	 1	    1.09636	   -7.46143	 110.0	 1	    1.12000	    0.95000;
	253	 1	 11.721	 4.0	 0.0	 0.0	 1	    1.08722	  -13.69235	 110.0	 1	    1.12000	    0.95000;
	254	 1	 10.122	 1.0	 0.0	 0.0	 1	    1.07239	  -19.30001	 110.0	 1	    1.12000	    0.95000;
	255	 1	 12.787	 1.5	 0.0	 0.0	 1	    1.09364	  -16.79078	 110.0	 1	    1.12000	    0.95000;
	256	 1	 4.795	 0.0	 0.0	 0.0	 1	    1.09383	  -16.91404	 110.0	 1	    1.12000	    0.95000;
	257	 1	 3.197	 0.65	 0.0	 0.0	 1	    1.09911	   -0.39648	 110.0	 1	    1.12000	    0.95000;
	258	 1	 3.197	 0.65	 0.0	 0.0	 1	    1.09906	   -0.40821	 110.0	 1	    1.12000	    0.95000;
	259	 1	 7.992	 2.47	 0.0	 0.0	 1	    1.10734	   -5.53046	 110.0	 1	    1.12000	    0.95000;
	260	 1	 4.795	 0.0	 0.0	 0.0	 1	    1.06275	  -21.69627	 110.0	 1	    1.12000	    0.95000;
	261	 1	 8.098	 1.5	 0.0	 0.0	 1	    1.09367	  -13.11702	 110.0	 1	    1.12000	    0.95000;
	262	 1	 0.0	 0.0	 0.0	 0.0	 1	    1.09211	  -12.05797	 110.0	 1	    1.12000	    0.95000;
	263	 1	 1.279	 1.0	 0.0	 0.0	 1	    1.07984	  -16.31089	 110.0	 1	    1.12000	    0.95000;
	264	 1	 25.574	 22.0	 0.0	 0.0	 1	    1.10657	    0.52616	 110.0	 1	    1.12000	    0.95000;
	265	 1	 34.097	 30.0	 0.0	 0.0	 1	    1.09402	   -1.71727	 110.0	 1	    1.12000	    0.95000;
	266	 1	 27.704	 0.8	 0.0	 0.0	 1	    1.11237	    0.60198	 110.0	 1	    1.12000	    0.95000;
	267	 1	 1.066	 0.0	 0.0	 0.0	 1	    1.08668	  -13.52010	 110.0	 1	    1.12000	    0.95000;
	268	 1	 9.59	 0.8	 0.0	 0.0	 1	    1.08713	  -14.16926	 110.0	 1	    1.12000	    0.95000;
	269	 1	 5.967	 2.0	 0.0	 0.0	 1	    1.10246	  -12.61192	 110.0	 1	    1.12000	    0.95000;
	270	 1	 9.057	 1.5	 0.0	 0.0	 1	    1.10215	  -13.38959	 110.0	 1	    1.12000	    0.95000;
	271	 1	 6.393	 0.5	 0.0	 0.0	 1	    1.06436	  -20.99430	 110.0	 1	    1.12000	    0.95000;
	272	 1	 7.885	 1.85	 0.0	 0.0	 1	    1.08748	  -13.50444	 110.0	 1	    1.12000	    0.95000;
	273	 1	 0.426	 0.1	 0.0	 0.0	 1	    1.08165	  -13.92493	 110.0	 1	    1.12000	    0.95000;
	274	 1	 0.213	 0.06	 0.0	 0.0	 1	    1.09403	  -13.36854	 110.0	 1	    1.12000	    0.95000;
	275	 1	 0.0	 0.0	 0.0	 0.0	 1	    1.09282	  -13.57608	 110.0	 1	    1.12000	    0.95000;
	276	 1	 11.401	 5.18	 0.0	 0.0	 1	    1.11710	   -4.38230	 110.0	 1	    1.12000	    0.95000;
	277	 1	 0.0	 0.0	 0.0	 0.0	 1	    1.11039	   -4.75736	 110.0	 1	    1.12000	    0.95000;
	278	 1	 5.328	 1.4	 0.0	 0.0	 1	    1.09916	   -6.36590	 110.0	 1	    1.12000	    0.95000;
	279	 1	 2.131	 0.5	 0.0	 0.0	 1	    1.10603	  -13.47151	 110.0	 1	    1.12000	    0.95000;
	280	 1	 5.328	 0.5	 0.0	 0.0	 1	    1.09893	  -13.86052	 110.0	 1	    1.12000	    0.95000;
	281	 1	 5.328	 1.0	 0.0	 0.0	 1	    1.09651	  -13.30169	 110.0	 1	    1.12000	    0.95000;
	282	 1	 5.328	 1.0	 0.0	 0.0	 1	    1.09664	  -12.06844	 110.0	 1	    1.12000	    0.95000;
	283	 1	 14.918	 12.0	 0.0	 0.0	 1	    1.08535	   -1.75347	 110.0	 1	    1.12000	    0.95000;
	284	 1	 37.294	 33.0	 0.0	 0.0	 1	    1.08513	   -1.74948	 110.0	 1	    1.12000	    0.95000;
	285	 1	 1.386	 0.4	 0.0	 0.0	 1	    1.11618	    0.49072	 110.0	 1	    1.12000	    0.95000;
	286	 1	 0.0	 0.0	 0.0	 0.0	 1	    1.10755	    0.56176	 110.0	 1	    1.12000	    0.95000;
	287	 1	 8.525	 2.9	 0.0	 0.0	 1	    1.11744	   -4.27784	 110.0	 1	    1.12000	    0.95000;
	288	 1	 7.459	 2.0	 0.0	 0.0	 1	    1.11181	   -4.94323	 110.0	 1	    1.12000	    0.95000;
	289	 1	 6.926	 0.5	 0.0	 0.0	 1	    1.08823	  -16.09599	 110.0	 1	    1.12000	    0.95000;
	290	 1	 4.795	 0.0	 0.0	 0.0	 1	    1.10367	  -14.57029	 110.0	 1	    1.12000	    0.95000;
	291	 1	 3.729	 2.5	 0.0	 0.0	 1	    1.08662	  -13.91728	 110.0	 1	    1.12000	    0.95000;
	292	 1	 2.344	 0.2	 0.0	 0.0	 1	    1.09788	   -5.93101	 110.0	 1	    1.12000	    0.95000;
	293	 1	 11.402	 4.1	 0.0	 0.0	 1	    1.09730	  -11.99794	 110.0	 1	    1.12000	    0.95000;
	294	 1	 8.311	 1.5	 0.0	 0.0	 1	    1.09438	  -13.13177	 110.0	 1	    1.12000	    0.95000;
	295	 1	 4.902	 1.51	 0.0	 0.0	 1	    1.11910	   -4.09208	 110.0	 1	    1.12000	    0.95000;
	296	 1	 1.704	 1.4	 0.0	 0.0	 1	    1.09394	  -10.21642	 110.0	 1	    1.12000	    0.95000;
	297	 1	 4.582	 0.5	 0.0	 0.0	 1	    1.08391	  -14.56394	 110.0	 1	    1.12000	    0.95000;
	298	 1	 7.672	 0.8	 0.0	 0.0	 1	    1.09654	   -6.05756	 110.0	 1	    1.12000	    0.95000;
	299	 1	 4.262	 0.7	 0.0	 0.0	 1	    1.10805	   -5.41348	 110.0	 1	    1.12000	    0.95000;
	300	 1	 6.18	 2.11	 0.0	 0.0	 1	    1.11369	   -4.89022	 110.0	 1	    1.12000	    0.95000;
	301	 1	 8.205	 2.53	 0.0	 0.0	 1	    1.09516	   -6.16799	 110.0	 1	    1.12000	    0.95000;
	302	 1	 8.524	 0.5	 0.0	 0.0	 1	    1.10910	  -13.06251	 110.0	 1	    1.12000	    0.95000;
	303	 1	 0.0	 0.0	 0.0	 0.0	 1	    1.11066	   -4.76152	 110.0	 1	    1.12000	    0.95000;
	304	 1	 4.049	 1.5	 0.0	 0.0	 1	    1.07535	   -1.83807	 110.0	 1	    1.12000	    0.95000;
	305	 1	 7.992	 2.72	 0.0	 0.0	 1	    1.11911	   -4.08852	 110.0	 1	    1.12000	    0.95000;
	306	 1	 7.779	 2.4	 0.0	 0.0	 1	    1.10224	   -5.52786	 110.0	 1	    1.12000	    0.95000;
	307	 1	 13.746	 4.24	 0.0	 0.0	 1	    1.11666	   -4.41531	 110.0	 1	    1.12000	    0.95000;
	308	 1	 12.254	 3.78	 0.0	 0.0	 1	    1.11406	   -4.92326	 110.0	 1	    1.12000	    0.95000;
	309	 2	 14.147	 9.046	 0.0	 0.0	 1	    1.11187	   -4.76094	 110.0	 1	    1.12000	    0.95000;
	310	 2	 11.759	 7.0	 0.0	 0.0	 1	    1.11511	   -4.88016	 110.0	 1	    1.12000	    0.95000;
	311	 2	 15.573	 8.3	 0.0	 0.0	 1	    1.09893	   -5.90133	 110.0	 1	    1.12000	    0.95000;
	312	 1	 0.0	 0.0	 0.0	 0.0	 1	    1.11383	   -4.90240	 110.0	 1	    1.12000	    0.95000;
	313	 2	 10.354	 5.48	 0.0	 0.0	 1	    1.11737	   -4.39968	 110.0	 1	    1.12000	    0.95000;
	314	 2	 6.18	 5.15	 0.0	 0.0	 1	    1.10845	   -4.82411	 110.0	 1	    1.12000	    0.95000;
	315	 1	 8.525	 1.2	 0.0	 0.0	 1	    1.09762	   -5.82854	 110.0	 1	    1.12000	    0.95000;
	316	 1	 2.131	 0.5	 0.0	 0.0	 1	    1.10451	  -13.39812	 110.0	 1	    1.12000	    0.95000;
	317	 1	 4.794	 1.5	 0.0	 0.0	 1	    1.08316	  -14.56427	 110.0	 1	    1.12000	    0.95000;
	318	 1	 3.996	 1.25	 0.0	 0.0	 1	    1.08332	  -14.63137	 110.0	 1	    1.12000	    0.95000;
	319	 1	 6.127	 1.25	 0.0	 0.0	 1	    1.08330	  -14.63155	 110.0	 1	    1.12000	    0.95000;
	320	 1	 6.926	 2.5	 0.0	 0.0	 1	    1.09346	  -13.27335	 110.0	 1	    1.12000	    0.95000;
	321	 1	 8.205	 2.53	 0.0	 0.0	 1	    1.11715	   -4.34215	 110.0	 1	    1.12000	    0.95000;