%%%%%%%%%%%%%%%%%%%%%%%%%%%%%%%%%%%%%%%%%%%%%%%%%%%%%%%%%%%%%%%%%%%%%%%%%%%
%%%%                                                                  %%%%%
%%%%    IEEE PES Power Grid Library - Optimal Power Flow - v17.07     %%%%%
%%%%          (https://github.com/power-grid-lib/pglib-opf)           %%%%%
%%%%             Benchmark Group - Small Angle Difference             %%%%%
%%%%                         27 - June - 2017                         %%%%%
%%%%                                                                  %%%%%
%%%%%%%%%%%%%%%%%%%%%%%%%%%%%%%%%%%%%%%%%%%%%%%%%%%%%%%%%%%%%%%%%%%%%%%%%%%
function mpc = pglib_opf_case9241_pegase__sad
mpc.version = '2';
mpc.baseMVA = 100.0;

%% bus data
%	bus_i	type	Pd	Qd	Gs	Bs	area	Vm	Va	baseKV	zone	Vmax	Vmin
mpc.bus = [
	1	 1	 378.4	 98.5	 0.0	 16.61	 0	    1.01772	   -8.47444	 220.0	 6	    1.10000	    0.90000;
	2	 2	 0.0	 0.0	 0.0	 0.0	 0	    1.05831	   -3.22816	 154.0	 1	    1.10000	    0.90000;
	3	 1	 151.0	 48.8	 0.0	 4.69	 0	    1.03448	   -9.40183	 220.0	 5	    1.10000	    0.90000;
	4	 1	 171.41	 23.4	 0.0	 2.1	 0	    1.05859	   -5.58686	 220.0	 5	    1.10000	    0.90000;
	5	 1	 45.95	 14.0	 0.0	 13.34	 0	    1.00645	  -10.94826	 220.0	 6	    1.10000	    0.90000;
	6	 2	 0.0	 0.0	 0.0	 0.0	 0	    1.07202	   -3.19870	 380.0	 6	    1.10000	    0.90000;
	7	 1	 31.03	 10.3	 0.0	 0.65	 0	    0.98375	  -13.16863	 110.0	 21	    1.10000	    0.90000;
	8	 2	 0.0	 0.0	 0.0	 0.0	 0	    1.06305	   -3.01314	 154.0	 1	    1.10000	    0.90000;
	9	 1	 14.3	 2.0	 0.0	 1.91	 0	    1.05958	   -3.05180	 154.0	 1	    1.10000	    0.90000;
	10	 1	 134.0	 24.7	 0.0	 12.44	 0	    1.06410	  -17.47438	 220.0	 5	    1.10000	    0.90000;
	11	 1	 0.0	 0.0	 0.0	 0.0	 0	    0.97589	  -14.08268	 150.0	 9	    1.10000	    0.90000;
	12	 1	 -6.11	 2.0	 0.0	 0.47	 0	    1.04267	   -9.08249	 150.0	 9	    1.10000	    0.90000;
	13	 1	 -22.74	 -8.32	 0.0	 6.5	 0	    1.01387	   -7.41300	 220.0	 6	    1.10000	    0.90000;
	14	 1	 13.5	 14.8	 0.0	 132.435168	 0	    1.13937	   -3.07474	 380.0	 9	    1.30000	    0.70000;
	15	 1	 59.67	 26.7	 0.0	 12.84	 0	    1.06517	  -13.90654	 220.0	 4	    1.10000	    0.90000;
	16	 1	 30.6	 4.3	 0.0	 5.15	 0	    1.05290	   -6.17480	 154.0	 1	    1.10000	    0.90000;
	17	 1	 67.68	 12.1	 0.0	 2.18	 0	    0.99924	  -10.47427	 220.0	 3	    1.10000	    0.90000;
	18	 2	 0.0	 0.0	 0.0	 0.0	 0	    1.03050	   -5.15527	 380.0	 3	    1.10000	    0.90000;
	19	 1	 25.33	 7.5	 0.0	 2.39	 0	    1.01533	  -10.70602	 110.0	 12	    1.10000	    0.90000;
	20	 1	 1.4	 0.2	 0.0	 4.93	 0	    1.06127	   -3.48681	 154.0	 1	    1.10000	    0.90000;
	21	 1	 161.2	 39.3	 0.0	 30.71	 0	    1.05975	  -16.04081	 220.0	 5	    1.10000	    0.90000;
	22	 1	 0.0	 -0.0	 0.0	 0.85	 0	    1.07590	  -11.08731	 220.0	 5	    1.10000	    0.90000;
	23	 1	 19.62	 7.1	 0.0	 1.15	 0	    1.05803	  -10.02033	 110.0	 19	    1.10000	    0.90000;
	24	 1	 17.22	 5.7	 0.0	 1.22	 0	    0.97209	  -12.79018	 110.0	 21	    1.10000	    0.90000;
	25	 2	 0.0	 0.0	 0.0	 0.0	 0	    1.03250	   -6.04442	 220.0	 3	    1.10000	    0.90000;
	26	 1	 167.3	 54.8	 0.0	 110.54	 0	    1.06811	   -1.14612	 380.0	 5	    1.10000	    0.90000;
	27	 1	 -0.0	 -0.0	 0.0	 14.82	 0	    1.06418	   -0.65084	 380.0	 13	    1.10000	    0.90000;
	28	 1	 0.0	 0.0	 0.0	 0.0	 0	    1.00811	  -13.33091	 150.0	 9	    1.10000	    0.90000;
	29	 1	 152.9	 49.4	 0.0	 27.65	 0	    1.04088	   -3.26300	 380.0	 5	    1.10000	    0.90000;
	30	 1	 -0.0	 0.0	 0.0	 0.56	 0	    1.03079	  -10.76351	 150.0	 9	    1.10000	    0.90000;
	31	 1	 69.68	 43.2	 0.0	 6.3	 0	    0.89721	  -17.83326	 150.0	 9	    1.30000	    0.70000;
	32	 2	 0.0	 0.0	 0.0	 0.0	 0	    1.03499	   -6.57567	 220.0	 4	    1.10000	    0.90000;
	33	 2	 0.0	 0.0	 0.0	 0.0	 0	    1.05645	   -5.45347	 220.0	 4	    1.10000	    0.90000;
	34	 1	 13.52	 4.9	 0.0	 1.8	 0	    1.06957	   -7.18642	 110.0	 19	    1.10000	    0.90000;
	35	 1	 10.51	 3.5	 0.0	 0.31	 0	    1.03405	   -9.41764	 110.0	 12	    1.10000	    0.90000;
	36	 1	 -0.0	 -0.0	 0.12	 15.34	 0	    1.07397	   -4.50371	 220.0	 19	    1.10000	    0.90000;
	37	 1	 9.21	 2.6	 0.0	 2.0	 0	    0.99006	  -10.40280	 110.0	 18	    1.10000	    0.90000;
	38	 1	 42.75	 12.8	 0.0	 13.3	 0	    1.03044	   -6.07269	 220.0	 8	    1.10000	    0.90000;
	39	 2	 0.0	 0.0	 0.0	 0.0	 0	    1.02204	   -5.49173	 150.0	 10	    1.10000	    0.90000;
	40	 1	 16.02	 4.54	 0.0	 0.1	 0	    1.01950	  -10.40089	 110.0	 23	    1.10000	    0.90000;
	41	 1	 27.9	 4.0	 0.0	 4.23	 0	    1.08545	   -7.58371	 154.0	 1	    1.10000	    0.90000;
	42	 1	 20.82	 7.9	 0.0	 26.89	 0	    1.08583	   -7.01520	 380.0	 4	    1.10000	    0.90000;
	43	 1	 12.6	 1.8	 0.0	 2.03	 0	    1.07820	   -3.24803	 154.0	 1	    1.10000	    0.90000;
	44	 1	 -0.0	 0.0	 0.0	 7.27	 0	    1.07098	  -15.49551	 220.0	 5	    1.10000	    0.90000;
	45	 1	 10.11	 3.7	 0.0	 0.81	 0	    1.07349	   -7.08193	 110.0	 19	    1.10000	    0.90000;
	46	 1	 10.01	 2.7	 0.0	 1.14	 0	    0.97667	  -10.78080	 110.0	 18	    1.10000	    0.90000;
	47	 1	 6.31	 0.0	 0.0	 0.67	 0	    1.01407	   -7.14020	 110.0	 18	    1.10000	    0.90000;
	48	 1	 2.9	 0.9	 0.0	 0.6	 0	    1.06013	   -6.93413	 110.0	 15	    1.10000	    0.90000;
	49	 2	 0.0	 0.0	 0.0	 0.0	 0	    1.02596	   -5.45857	 220.0	 6	    1.10000	    0.90000;
	50	 1	 48.8	 6.9	 0.0	 8.71	 0	    1.07833	   -7.59345	 154.0	 1	    1.10000	    0.90000;
	51	 2	 0.0	 0.0	 0.0	 0.0	 0	    1.06869	   -5.49992	 220.0	 4	    1.10000	    0.90000;
	52	 1	 127.6	 31.8	 0.0	 20.51	 0	    1.05730	  -13.82752	 150.0	 8	    1.10000	    0.90000;
	53	 1	 48.65	 16.1	 0.0	 7.14	 0	    1.08954	   -1.95196	 220.0	 5	    1.10000	    0.90000;
	54	 1	 110.5	 -26.8	 0.0	 16.37	 0	    1.05759	   -6.58878	 220.0	 6	    1.10000	    0.90000;
	55	 1	 0.0	 -0.0	 0.0	 1.23	 0	    1.00115	   -9.57503	 220.0	 3	    1.10000	    0.90000;
	56	 1	 140.0	 79.7	 0.0	 6.5	 0	    1.00987	  -13.19756	 220.0	 3	    1.10000	    0.90000;
	57	 1	 21.6	 3.0	 0.0	 3.54	 0	    1.07796	   -8.73659	 154.0	 1	    1.10000	    0.90000;
	58	 1	 0.0	 0.0	 0.0	 2.31	 0	    1.04113	   -1.37275	 380.0	 5	    1.10000	    0.90000;
	59	 1	 119.2	 20.7	 0.0	 3.31	 0	    1.08386	  -11.99227	 220.0	 5	    1.10000	    0.90000;
	60	 1	 0.24	 -1.66	 0.0	 0.65	 0	    1.04762	   -5.55522	 110.0	 18	    1.10000	    0.90000;
	61	 1	 -0.0	 0.0	 0.0	 58.57	 0	    0.98791	    0.65542	 380.0	 3	    1.10000	    0.90000;
	62	 1	 -0.0	 0.0	 0.0	 1.34	 0	    0.99836	   -9.16408	 110.0	 18	    1.10000	    0.90000;
	63	 1	 187.9	 110.2	 0.0	 21.25	 0	    1.04479	  -10.83094	 380.0	 3	    1.10000	    0.90000;
	64	 1	 14.92	 5.5	 0.0	 1.31	 0	    1.06036	   -5.23148	 110.0	 15	    1.10000	    0.90000;
	65	 1	 -18.52	 6.1	 0.0	 0.79	 0	    0.91157	  -16.23903	 150.0	 9	    1.10000	    0.90000;
	66	 1	 4.61	 1.7	 0.0	 2.32	 0	    1.09554	   -6.49960	 110.0	 19	    1.10000	    0.90000;
	67	 1	 0.0	 0.0	 0.099501	 82.133595	 0	    1.10000	   -5.70117	 380.0	 18	    1.10000	    0.90000;
	68	 1	 10.81	 5.1	 0.0	 1.09	 0	    0.94504	  -15.31605	 110.0	 18	    1.10000	    0.90000;
	69	 1	 62.87	 20.5	 0.0	 1.15	 0	    1.05664	  -14.95074	 150.0	 8	    1.10000	    0.90000;
	70	 1	 0.0	 0.0	 0.0	 2.64	 0	    1.05934	   -8.82500	 154.0	 1	    1.10000	    0.90000;
	71	 1	 126.3	 42.4	 0.0	 55.24	 0	    1.07855	  -16.01051	 150.0	 8	    1.10000	    0.90000;
	72	 1	 6.91	 -4.6	 0.0	 5.75	 0	    1.04611	   -6.63417	 220.0	 4	    1.10000	    0.90000;
	73	 1	 15.72	 5.2	 0.0	 0.11	 0	    1.02584	  -10.36279	 110.0	 12	    1.10000	    0.90000;
	74	 1	 0.0	 0.0	 0.0	 0.0	 0	    1.04889	  -11.03045	 150.0	 9	    1.10000	    0.90000;
	75	 1	 38.74	 6.1	 0.0	 1.17	 0	    1.07527	  -10.60081	 220.0	 4	    1.10000	    0.90000;
	76	 1	 22.13	 10.7	 0.0	 14.21	 0	    1.03052	   -6.06912	 220.0	 8	    1.10000	    0.90000;
	77	 1	 -0.0	 -0.0	 0.0	 0.73	 0	    1.08183	   -7.25103	 220.0	 4	    1.10000	    0.90000;
	78	 1	 0.0	 -0.0	 0.0	 0.83	 0	    0.99607	   -6.97088	 110.0	 18	    1.10000	    0.90000;
	79	 1	 138.8	 136.7	 0.0	 8.76	 0	    1.01424	   -6.78461	 380.0	 3	    1.10000	    0.90000;
	80	 2	 0.0	 0.0	 0.0	 0.0	 0	    1.08996	   -4.39955	 220.0	 23	    1.10000	    0.90000;
	81	 1	 67.76	 19.18	 0.0	 1.47	 0	    1.02918	   -3.11651	 150.0	 1	    1.10000	    0.90000;
	82	 1	 22.02	 5.1	 0.0	 0.69	 0	    1.03774	  -10.13159	 110.0	 1	    1.10000	    0.90000;
	83	 1	 0.0	 0.0	 0.0	 6.62	 0	    0.98979	   -9.38325	 220.0	 3	    1.10000	    0.90000;
	84	 1	 1.0	 0.3	 0.0	 0.19	 0	    1.06744	   -6.27875	 110.0	 19	    1.10000	    0.90000;
	85	 1	 20.9	 3.0	 0.0	 5.74	 0	    1.06045	   -4.66294	 154.0	 1	    1.10000	    0.90000;
	86	 1	 0.0	 0.0	 0.0	 0.12	 0	    1.05550	   -9.61938	 150.0	 9	    1.10000	    0.90000;
	87	 1	 21.52	 5.1	 0.0	 0.5	 0	    1.02825	   -2.00344	 110.0	 18	    1.10000	    0.90000;
	88	 1	 71.98	 28.8	 0.0	 11.0	 0	    1.07604	   -7.04161	 220.0	 6	    1.10000	    0.90000;
	89	 1	 0.0	 0.0	 0.199111	 4.530599	 0	    1.02662	   -5.75003	 380.0	 2	    1.10000	    0.90000;
	90	 1	 363.25	 115.39	 0.0	 3.95	 0	    1.07652	  -10.26557	 220.0	 5	    1.10000	    0.90000;
	91	 1	 -0.0	 0.0	 0.0	 0.02	 0	    1.05363	  -13.86703	 150.0	 8	    1.10000	    0.90000;
	92	 1	 192.9	 73.3	 0.0	 20.75	 0	    1.06488	  -11.38249	 380.0	 3	    1.10000	    0.90000;
	93	 1	 17.52	 6.3	 0.0	 0.26	 0	    1.09236	   -6.93768	 110.0	 19	    1.10000	    0.90000;
	94	 1	 33.14	 12.0	 0.0	 0.65	 0	    1.08935	   -5.85841	 110.0	 19	    1.10000	    0.90000;
	95	 1	 40.45	 25.0	 0.0	 9.82	 0	    0.99005	  -13.97258	 150.0	 9	    1.10000	    0.90000;
	96	 1	 193.17	 53.37	 0.0	 4.58	 0	    1.07512	   -4.55084	 220.0	 5	    1.10000	    0.90000;
	97	 1	 0.0	 0.0	 0.0	 9.38	 0	    1.03420	   -2.08073	 380.0	 1	    1.10000	    0.90000;
	98	 1	 90.7	 25.5	 0.0	 3.11	 0	    1.07591	  -17.13269	 220.0	 3	    1.10000	    0.90000;
	99	 1	 176.3	 -58.9	 0.0	 24.77	 0	    1.08949	   -4.99409	 380.0	 6	    1.10000	    0.90000;
	100	 1	 35.94	 22.3	 0.0	 0.0	 0	    1.03587	  -11.68807	 150.0	 9	    1.10000	    0.90000;
	101	 1	 -0.0	 0.0	 0.0	 0.29	 0	    0.97563	  -14.09111	 150.0	 9	    1.10000	    0.90000;
	102	 1	 0.0	 -0.0	 0.0	 3.77	 0	    1.03412	  -10.34623	 220.0	 6	    1.10000	    0.90000;
	103	 1	 65.07	 40.3	 0.0	 5.43	 0	    1.00562	  -15.30205	 150.0	 9	    1.10000	    0.90000;
	104	 1	 51.36	 -8.8	 0.0	 2.15	 0	    0.98344	  -16.33500	 220.0	 6	    1.10000	    0.90000;
	105	 1	 -0.0	 -0.0	 0.0	 82.55	 0	    1.05150	   -4.84913	 380.0	 6	    1.10000	    0.90000;
	106	 1	 0.0	 -0.0	 0.0	 31.19	 0	    1.15982	   -3.29147	 380.0	 23	    1.30000	    0.70000;
	107	 2	 0.0	 0.0	 0.0	 0.0	 0	    1.00785	    1.97863	 380.0	 3	    1.30000	    0.70000;
	108	 1	 3.8	 1.3	 0.0	 0.4	 0	    1.02457	   -2.75176	 110.0	 18	    1.10000	    0.90000;
	109	 1	 137.0	 19.5	 0.0	 4.9	 0	    1.06617	   -6.07806	 154.0	 1	    1.10000	    0.90000;
	110	 1	 0.0	 0.0	 0.0	 0.0	 0	    0.99846	  -13.50747	 150.0	 9	    1.10000	    0.90000;
	111	 1	 61.07	 36.0	 0.0	 3.09	 0	    1.03190	  -12.77711	 220.0	 11	    1.10000	    0.90000;
	112	 1	 0.0	 0.0	 0.0	 3.24	 0	    1.06758	  -19.45968	 220.0	 3	    1.10000	    0.90000;
	113	 1	 -0.0	 -0.0	 0.0	 6.532711	 0	    1.06465	   -4.15603	 380.0	 5	    1.10000	    0.90000;
	114	 1	 55.7	 7.9	 0.0	 4.21	 0	    1.03407	   -6.55648	 154.0	 1	    1.10000	    0.90000;
	115	 1	 0.0	 -0.0	 0.0	 4.21	 0	    1.07026	  -12.45712	 220.0	 5	    1.10000	    0.90000;
	116	 1	 1.8	 0.7	 0.0	 0.3	 0	    1.06601	   -8.21803	 110.0	 19	    1.10000	    0.90000;
	117	 1	 40.04	 16.0	 0.0	 0.52	 0	    1.01330	   -4.74096	 110.0	 18	    1.10000	    0.90000;
	118	 1	 -0.0	 0.0	 0.0	 36.562834	 0	    1.07231	   -1.62443	 380.0	 5	    1.10000	    0.90000;
	119	 1	 0.0	 0.0	 0.0	 0.09	 0	    1.09018	   -5.57301	 150.0	 9	    1.10000	    0.90000;
	120	 1	 140.6	 20.1	 0.0	 13.81	 0	    1.05682	  -10.91818	 154.0	 1	    1.10000	    0.90000;
	121	 1	 45.15	 14.1	 0.0	 0.19	 0	    1.08128	   -5.99154	 110.0	 15	    1.10000	    0.90000;
	122	 1	 -0.0	 0.0	 0.0	 5.75	 0	    0.99557	  -10.57124	 220.0	 3	    1.10000	    0.90000;
	123	 2	 0.0	 0.0	 0.0	 0.0	 0	    1.02837	  -14.69720	 220.0	 11	    1.10000	    0.90000;
	124	 2	 0.0	 0.0	 0.0	 0.0	 0	    1.06997	    2.43483	 220.0	 5	    1.10000	    0.90000;
	125	 1	 3.42	 2.68	 0.0	 1.46	 0	    1.04564	   -5.59023	 110.0	 18	    1.10000	    0.90000;
	126	 1	 0.0	 -0.0	 0.0	 2.64	 0	    1.04793	   -6.69669	 154.0	 1	    1.10000	    0.90000;
	127	 1	 -0.0	 -0.0	 0.0	 4.3	 0	    1.05146	   -3.36778	 220.0	 6	    1.10000	    0.90000;
	128	 1	 23.73	 12.7	 0.0	 0.52	 0	    1.05123	  -12.99801	 220.0	 5	    1.10000	    0.90000;
	129	 1	 121.9	 7.4	 0.0	 1.34	 0	    1.02961	  -13.95596	 220.0	 3	    1.10000	    0.90000;
	130	 1	 -0.0	 0.0	 0.135375	 47.750675	 0	    1.09049	  -10.77876	 380.0	 10	    1.10000	    0.90000;
	131	 1	 47.35	 16.4	 0.0	 4.08	 0	    1.06102	   -6.85418	 110.0	 22	    1.10000	    0.90000;
	132	 1	 0.0	 -0.0	 0.0	 21.39	 0	    1.09111	   -7.49925	 380.0	 1	    1.10000	    0.90000;
	133	 1	 38.14	 12.5	 0.0	 6.28	 0	    1.06358	  -12.40000	 150.0	 8	    1.10000	    0.90000;
	134	 1	 54.2	 7.8	 0.0	 94.9	 0	    1.06119	   -2.96041	 400.0	 1	    1.10000	    0.90000;
	135	 1	 130.6	 84.9	 0.0	 4.22	 0	    1.02016	   -9.56568	 220.0	 7	    1.10000	    0.90000;
	136	 1	 7.91	 2.6	 0.0	 0.74	 0	    1.01521	   -9.08982	 110.0	 12	    1.10000	    0.90000;
	137	 1	 42.1	 74.61	 0.0	 37.58	 0	    1.02419	   -3.07942	 150.0	 1	    1.10000	    0.90000;
	138	 1	 -75.38	 7.8	 0.0	 29.9	 0	    1.09518	   -8.13766	 380.0	 10	    1.10000	    0.90000;
	139	 1	 -0.0	 -0.0	 0.0	 36.92	 0	    1.04226	   -7.36746	 380.0	 8	    1.10000	    0.90000;
	140	 1	 0.0	 0.0	 0.0	 4.14	 0	    1.05410	  -11.03680	 220.0	 8	    1.10000	    0.90000;
	141	 2	 0.0	 0.0	 0.0	 0.0	 0	    1.08856	   -0.10947	 220.0	 13	    1.10000	    0.90000;
	142	 2	 0.0	 0.0	 0.0	 0.0	 0	    1.03349	   -5.74712	 220.0	 6	    1.10000	    0.90000;
	143	 1	 0.0	 0.0	 0.0	 0.0	 0	    1.05445	  -15.42773	 150.0	 8	    1.10000	    0.90000;
	144	 1	 0.0	 0.0	 0.0	 98.53	 0	    1.03272	   -1.52823	 380.0	 14	    1.10000	    0.90000;
	145	 1	 38.34	 5.6	 0.0	 7.64	 0	    1.09320	   -4.34243	 220.0	 5	    1.10000	    0.90000;
	146	 1	 269.6	 65.7	 0.0	 0.0	 0	    1.10999	   -7.13188	 120.0	 20	    1.30000	    0.70000;
	147	 2	 0.0	 0.0	 0.0	 0.0	 0	    1.07411	   -3.10984	 220.0	 7	    1.10000	    0.90000;
	148	 1	 32.34	 12.0	 0.0	 6.1	 0	    1.06788	   -4.53731	 220.0	 5	    1.10000	    0.90000;
	149	 1	 100.1	 45.1	 0.0	 1.11	 0	    1.04230	   -6.37020	 380.0	 6	    1.10000	    0.90000;
	150	 2	 0.0	 0.0	 0.0	 0.0	 0	    1.08112	   -3.34178	 220.0	 5	    1.10000	    0.90000;
	151	 2	 0.0	 0.0	 0.0	 0.0	 0	    1.05850	   -3.28761	 154.0	 1	    1.10000	    0.90000;
	152	 1	 7.0	 1.0	 0.0	 4.69	 0	    1.07082	   -4.77501	 154.0	 1	    1.10000	    0.90000;
	153	 1	 -0.0	 0.0	 0.0	 0.56	 0	    1.02051	   -7.13950	 150.0	 7	    1.10000	    0.90000;
	154	 1	 0.0	 0.0	 0.0	 1.29	 0	    1.03377	   -9.22414	 110.0	 12	    1.10000	    0.90000;
	155	 1	 -0.0	 -0.0	 0.0	 1.7	 0	    1.03398	   -7.45002	 110.0	 21	    1.10000	    0.90000;
	156	 1	 40.34	 25.0	 0.0	 1.14	 0	    0.96413	  -14.30490	 150.0	 9	    1.10000	    0.90000;
	157	 1	 9.21	 3.3	 0.0	 1.2	 0	    1.07146	   -6.64908	 110.0	 19	    1.10000	    0.90000;
	158	 1	 166.0	 60.3	 0.0	 0.57	 0	    1.00631	   -9.45950	 220.0	 3	    1.10000	    0.90000;
	159	 1	 0.0	 -0.0	 0.0	 0.1	 0	    1.03374	  -11.27535	 150.0	 9	    1.10000	    0.90000;
	160	 1	 79.4	 11.3	 0.0	 4.92	 0	    1.06947	   -4.27863	 154.0	 1	    1.10000	    0.90000;
	161	 1	 -0.0	 -0.0	 0.0	 0.16	 0	    1.08718	   -9.76085	 150.0	 9	    1.10000	    0.90000;
	162	 1	 0.0	 0.0	 0.0	 66.65	 0	    1.09747	   -0.45450	 380.0	 6	    1.10000	    0.90000;
	163	 1	 147.76	 32.73	 0.0	 8.34	 0	    1.06754	   -8.72801	 220.0	 5	    1.10000	    0.90000;
	164	 1	 0.0	 -0.0	 0.0	 5.17	 0	    1.05540	  -20.07901	 150.0	 8	    1.10000	    0.90000;
	165	 1	 26.8	 -3.7	 0.0	 51.261678	 0	    1.08553	   -4.16095	 380.0	 9	    1.10000	    0.90000;
	166	 2	 0.0	 0.0	 0.0	 0.0	 0	    1.03223	   -5.66814	 220.0	 3	    1.10000	    0.90000;
	167	 1	 257.5	 131.1	 0.0	 1.08	 0	    1.02562	   -9.83064	 220.0	 3	    1.10000	    0.90000;
	168	 1	 16.7	 2.4	 0.0	 6.09	 0	    1.06301	   -4.86312	 154.0	 1	    1.10000	    0.90000;
	169	 1	 0.0	 0.0	 0.0	 1.91	 0	    1.04622	  -11.19301	 150.0	 9	    1.10000	    0.90000;
	170	 1	 -0.0	 -0.0	 0.0	 2.35	 0	    1.01154	    2.42008	 220.0	 1	    1.10000	    0.90000;
	171	 1	 100.8	 13.2	 0.0	 5.24	 0	    1.06243	   -7.78919	 220.0	 5	    1.10000	    0.90000;
	172	 1	 111.7	 10.96	 0.0	 4.22	 0	    1.06248	   -6.11669	 220.0	 4	    1.10000	    0.90000;
	173	 1	 90.38	 -5.05	 0.0	 8.49	 0	    1.03872	   -1.90083	 220.0	 13	    1.10000	    0.90000;
	174	 1	 370.5	 -17.0	 0.0	 9.91	 0	    1.09106	  -16.21721	 220.0	 5	    1.10000	    0.90000;
	175	 1	 9.91	 3.2	 0.0	 0.67	 0	    1.02307	  -10.82657	 110.0	 12	    1.10000	    0.90000;
	176	 1	 -0.69	 -5.46	 0.0	 5.07	 0	    1.05375	  -10.14952	 150.0	 9	    1.10000	    0.90000;
	177	 1	 94.9	 36.2	 0.0	 16.46	 0	    0.99821	   -9.99112	 220.0	 10	    1.10000	    0.90000;
	178	 1	 81.09	 48.0	 0.0	 0.03	 0	    1.02054	  -11.45753	 150.0	 9	    1.10000	    0.90000;
	179	 2	 0.0	 0.0	 0.0	 0.0	 0	    1.09231	   -5.59225	 380.0	 4	    1.10000	    0.90000;
	180	 1	 0.0	 0.0	 0.0	 0.54	 0	    1.04056	   -7.39016	 110.0	 21	    1.10000	    0.90000;
	181	 1	 54.96	 16.9	 0.0	 3.37	 0	    1.05858	   -7.40424	 110.0	 22	    1.10000	    0.90000;
	182	 1	 19.32	 26.0	 0.0	 0.69	 0	    1.01531	   -3.58602	 220.0	 3	    1.10000	    0.90000;
	183	 1	 0.0	 0.0	 0.0	 1.83	 0	    1.03837	  -10.29886	 150.0	 9	    1.10000	    0.90000;
	184	 1	 -0.0	 -0.0	 0.0	 2.42	 0	    1.06707	  -10.57592	 220.0	 5	    1.10000	    0.90000;
	185	 1	 20.9	 3.0	 0.0	 4.11	 0	    1.07239	   -4.18127	 154.0	 1	    1.10000	    0.90000;
	186	 1	 19.92	 6.6	 0.0	 0.56	 0	    1.01956	   -9.52790	 110.0	 21	    1.10000	    0.90000;
	187	 1	 57.16	 2.0	 0.0	 1.48	 0	    1.01535	  -10.69549	 110.0	 22	    1.10000	    0.90000;
	188	 1	 36.84	 13.9	 0.0	 3.3	 0	    1.05566	   -9.81567	 220.0	 5	    1.10000	    0.90000;
	189	 1	 -15.04	 -5.12	 0.0	 0.43	 0	    1.02364	   -6.95867	 110.0	 18	    1.10000	    0.90000;
	190	 2	 0.0	 0.0	 0.0	 0.0	 0	    1.10000	   -3.93465	 110.0	 19	    1.10000	    0.90000;
	191	 1	 0.0	 -0.0	 0.0	 14.19	 0	    1.02618	   -6.57293	 220.0	 6	    1.10000	    0.90000;
	192	 2	 0.0	 0.0	 0.0	 0.0	 0	    1.03096	    1.63275	 380.0	 3	    1.10000	    0.90000;
	193	 1	 119.9	 3.7	 0.0	 3.33	 0	    1.00668	   -4.09788	 220.0	 3	    1.10000	    0.90000;
	194	 2	 0.0	 0.0	 0.0	 0.0	 0	    1.08304	   -3.71559	 150.0	 8	    1.10000	    0.90000;
	195	 1	 73.14	 21.55	 0.0	 8.52	 0	    1.08714	   -3.14755	 220.0	 5	    1.10000	    0.90000;
	196	 1	 0.0	 -0.0	 0.0	 12.48	 0	    1.09932	  -20.45445	 220.0	 5	    1.10000	    0.90000;
	197	 2	 0.0	 0.0	 0.0	 0.0	 0	    1.00040	    0.77394	 380.0	 3	    1.10000	    0.90000;
	198	 1	 39.74	 11.8	 0.0	 1.44	 0	    1.04656	  -13.41657	 220.0	 5	    1.10000	    0.90000;
	199	 1	 86.8	 28.4	 0.0	 1.34	 0	    1.05492	  -13.58411	 150.0	 8	    1.10000	    0.90000;
	200	 1	 22.42	 2.1	 0.0	 0.19	 0	    1.03468	   -2.12201	 150.0	 1	    1.10000	    0.90000;
	201	 2	 0.0	 0.0	 0.0	 0.0	 0	    1.08075	   -8.63509	 220.0	 4	    1.10000	    0.90000;
	202	 1	 110.9	 32.7	 0.0	 15.4	 0	    0.98592	   -2.25659	 220.0	 14	    1.10000	    0.90000;
	203	 1	 18.2	 2.6	 0.0	 12.38	 0	    1.06127	   -4.70574	 154.0	 1	    1.10000	    0.90000;
	204	 1	 -0.0	 -0.0	 0.181549	 14.690889	 0	    1.08109	   -5.70375	 220.0	 18	    1.10000	    0.90000;
	205	 1	 46.15	 18.2	 0.0	 1.29	 0	    1.05046	  -14.96516	 150.0	 8	    1.10000	    0.90000;
	206	 1	 34.04	 12.3	 0.0	 0.23	 0	    1.09398	   -7.00410	 110.0	 19	    1.10000	    0.90000;
	207	 1	 321.98	 84.4	 0.0	 1.34	 0	    1.05177	  -12.26778	 220.0	 5	    1.10000	    0.90000;
	208	 1	 33.44	 10.0	 0.0	 1.36	 0	    1.00230	  -14.04207	 110.0	 3	    1.10000	    0.90000;
	209	 2	 0.0	 0.0	 0.0	 0.0	 0	    1.05372	   -6.22034	 110.0	 12	    1.10000	    0.90000;
	210	 1	 0.0	 0.0	 0.0	 0.0	 0	    0.97855	  -16.70928	 150.0	 9	    1.10000	    0.90000;
	211	 1	 75.28	 19.2	 0.0	 1.9	 0	    1.05958	  -14.81624	 110.0	 8	    1.10000	    0.90000;
	212	 1	 95.69	 24.54	 0.0	 2.85	 0	    1.06176	   -2.05132	 220.0	 13	    1.10000	    0.90000;
	213	 1	 37.34	 10.9	 0.0	 0.63	 0	    1.01360	  -10.70020	 110.0	 1	    1.10000	    0.90000;
	214	 2	 0.0	 0.0	 0.0	 0.0	 0	    1.05803	    0.05190	 380.0	 13	    1.10000	    0.90000;
	215	 1	 -0.0	 0.0	 0.0	 4.93	 0	    1.02245	   -8.84661	 110.0	 18	    1.10000	    0.90000;
	216	 1	 155.6	 54.7	 0.0	 2.21	 0	    1.08385	  -15.53204	 220.0	 5	    1.10000	    0.90000;
	217	 1	 105.2	 0.1	 0.0	 7.36	 0	    1.03885	   -6.96898	 220.0	 5	    1.10000	    0.90000;
	218	 1	 69.83	 15.12	 0.0	 2.23	 0	    1.06425	   -8.50608	 220.0	 5	    1.10000	    0.90000;
	219	 2	 0.0	 0.0	 0.0	 0.0	 0	    1.02944	   -4.84168	 380.0	 7	    1.10000	    0.90000;
	220	 2	 0.0	 0.0	 0.0	 0.0	 0	    1.09180	    0.12496	 380.0	 6	    1.10000	    0.90000;
	221	 2	 0.0	 0.0	 0.0	 0.0	 0	    1.04083	   -1.34027	 380.0	 5	    1.10000	    0.90000;
	222	 2	 0.0	 0.0	 0.0	 0.0	 0	    1.01825	   -0.92075	 150.0	 1	    1.10000	    0.90000;
	223	 1	 27.03	 8.8	 0.0	 1.84	 0	    1.03469	   -5.64868	 110.0	 21	    1.10000	    0.90000;
	224	 1	 2.6	 0.5	 0.0	 0.14	 0	    1.01837	   -4.19743	 110.0	 18	    1.10000	    0.90000;
	225	 1	 0.0	 0.0	 0.0	 1.15	 0	    1.06739	  -12.83542	 220.0	 5	    1.10000	    0.90000;
	226	 1	 14.62	 4.8	 0.0	 1.02	 0	    1.03149	   -7.08589	 110.0	 12	    1.10000	    0.90000;
	227	 1	 -0.0	 0.0	 0.0	 2.55	 0	    1.05166	   -4.26290	 220.0	 7	    1.10000	    0.90000;
	228	 1	 -23.43	 57.4	 0.0	 0.0	 0	    1.07725	   -8.39291	 150.0	 2	    1.10000	    0.90000;
	229	 1	 426.6	 93.7	 0.0	 80.94	 0	    1.06474	   -1.85475	 380.0	 6	    1.10000	    0.90000;
	230	 1	 152.07	 22.52	 0.0	 7.87	 0	    1.05116	   -5.22330	 220.0	 4	    1.10000	    0.90000;
	231	 1	 -0.13	 -1.0	 0.0	 0.0	 0	    1.02748	   -9.36015	 110.0	 8	    1.10000	    0.90000;
	232	 1	 0.0	 0.0	 0.0	 0.7	 0	    1.05902	   -7.77966	 150.0	 9	    1.10000	    0.90000;
	233	 1	 2.5	 3.8	 0.0	 0.15	 0	    0.96888	  -13.28057	 110.0	 18	    1.10000	    0.90000;
	234	 1	 16.7	 2.4	 0.0	 0.87	 0	    1.05695	   -3.53857	 154.0	 1	    1.10000	    0.90000;
	235	 1	 34.04	 4.4	 0.0	 1.25	 0	    1.00728	  -12.05023	 110.0	 22	    1.10000	    0.90000;
	236	 1	 45.85	 7.0	 0.0	 1.05	 0	    1.07107	  -12.57455	 220.0	 4	    1.10000	    0.90000;
	237	 1	 0.0	 -0.0	 0.0	 30.97	 0	    1.04112	   -0.11075	 380.0	 3	    1.10000	    0.90000;
	238	 1	 0.0	 -0.0	 0.0	 19.36	 0	    1.04300	   -7.00862	 220.0	 6	    1.10000	    0.90000;
	239	 2	 0.0	 0.0	 0.0	 0.0	 0	    1.06908	   -6.16782	 110.0	 19	    1.10000	    0.90000;
	240	 1	 0.0	 0.0	 0.0	 0.0	 0	    1.02690	  -12.03579	 150.0	 9	    1.10000	    0.90000;
	241	 1	 -0.0	 0.0	 0.0	 3.95	 0	    1.00207	    1.65238	 220.0	 3	    1.10000	    0.90000;
	242	 1	 167.9	 18.2	 0.0	 5.97	 0	    1.07391	  -17.28753	 220.0	 3	    1.10000	    0.90000;
	243	 1	 0.0	 -0.01	 0.0	 13.49	 0	    1.06153	   -1.96252	 150.0	 8	    1.10000	    0.90000;
	244	 1	 -0.0	 -0.0	 0.0	 0.68	 0	    1.06749	   -9.54312	 150.0	 8	    1.10000	    0.90000;
	245	 1	 16.62	 5.5	 0.0	 1.34	 0	    1.02199	   -8.96648	 110.0	 21	    1.10000	    0.90000;
	246	 2	 0.0	 0.0	 0.0	 0.0	 0	    1.07124	   -1.93129	 220.0	 1	    1.10000	    0.90000;
	247	 1	 0.0	 0.0	 0.0	 0.72	 0	    1.00811	   -7.63447	 110.0	 18	    1.10000	    0.90000;
	248	 2	 0.0	 0.0	 0.0	 0.0	 0	    1.06040	   -0.48291	 380.0	 13	    1.10000	    0.90000;
	249	 1	 -0.0	 -0.0	 0.0	 26.3	 0	    1.03461	   -6.58286	 220.0	 4	    1.10000	    0.90000;
	250	 1	 0.0	 0.0	 0.0	 13.85	 0	    1.03815	   -4.52628	 380.0	 3	    1.10000	    0.90000;
	251	 1	 118.4	 16.9	 0.0	 8.02	 0	    1.05399	   -6.77283	 154.0	 1	    1.10000	    0.90000;
	252	 1	 -0.0	 0.0	 0.0	 2.66	 0	    1.02853	   -1.01549	 220.0	 3	    1.10000	    0.90000;
	253	 1	 0.0	 -0.0	 0.0	 4.06	 0	    1.02924	  -16.79672	 220.0	 1	    1.10000	    0.90000;
	254	 1	 -0.0	 -0.0	 0.135493	 12.74062	 0	    1.07873	   -7.02643	 380.0	 21	    1.10000	    0.90000;
	255	 2	 0.0	 0.0	 0.0	 0.0	 0	    1.07376	   -1.12348	 380.0	 16	    1.10000	    0.90000;
	256	 1	 0.0	 -0.0	 0.0	 7.09	 0	    1.09085	   -2.48414	 220.0	 6	    1.10000	    0.90000;
	257	 1	 113.9	 24.5	 0.0	 6.72	 0	    1.06612	   -8.96562	 220.0	 4	    1.10000	    0.90000;
	258	 1	 88.0	 12.6	 0.0	 22.25	 0	    1.08929	  -10.82977	 154.0	 1	    1.10000	    0.90000;
	259	 1	 42.67	 12.11	 0.0	 14.84	 0	    1.02586	  -12.61773	 150.0	 9	    1.10000	    0.90000;
	260	 1	 216.8	 40.5	 0.0	 5.91	 0	    1.05836	  -20.44800	 220.0	 3	    1.10000	    0.90000;
	261	 1	 -0.0	 0.0	 0.0	 1.29	 0	    1.08665	  -10.94470	 380.0	 10	    1.10000	    0.90000;
	262	 2	 0.0	 0.0	 0.0	 0.0	 0	    1.05572	   -0.67979	 220.0	 13	    1.10000	    0.90000;
	263	 2	 0.0	 0.0	 0.0	 0.0	 0	    1.07652	   -7.14762	 154.0	 1	    1.10000	    0.90000;
	264	 1	 38.74	 9.0	 0.0	 0.57	 0	    1.06382	   -5.41817	 220.0	 4	    1.10000	    0.90000;
	265	 1	 350.4	 29.3	 0.0	 19.31	 0	    1.06554	   -8.10389	 220.0	 11	    1.10000	    0.90000;
	266	 1	 0.0	 -0.0	 0.0	 140.96	 0	    1.08839	   -4.20510	 380.0	 4	    1.10000	    0.90000;
	267	 1	 103.8	 2.7	 0.0	 3.33	 0	    1.07367	   -9.41855	 220.0	 4	    1.10000	    0.90000;
	268	 1	 -0.13	 -1.0	 0.0	 0.0	 0	    1.04661	   -5.67180	 220.0	 8	    1.10000	    0.90000;
	269	 1	 0.0	 -0.0	 0.0	 0.66	 0	    1.05354	   -6.08727	 110.0	 22	    1.10000	    0.90000;
	270	 1	 -0.0	 0.0	 0.0	 6.34	 0	    1.03189	    1.01018	 380.0	 1	    1.10000	    0.90000;
	271	 1	 96.7	 26.8	 0.0	 0.0	 0	    1.07213	   -9.94647	 150.0	 2	    1.10000	    0.90000;
	272	 1	 0.0	 0.0	 0.0	 19.54	 0	    1.06831	  -12.95127	 150.0	 9	    1.10000	    0.90000;
	273	 1	 -0.0	 -0.0	 0.0	 14.87	 0	    1.07274	   -6.33426	 220.0	 23	    1.10000	    0.90000;
	274	 1	 19.02	 6.0	 0.0	 0.25	 0	    1.02661	   -6.81882	 110.0	 21	    1.10000	    0.90000;
	275	 1	 102.1	 25.3	 0.0	 1.11	 0	    1.05796	  -12.87395	 150.0	 8	    1.10000	    0.90000;
	276	 1	 -0.0	 0.0	 0.0	 2.44	 0	    1.00077	    0.10601	 220.0	 3	    1.10000	    0.90000;
	277	 1	 0.0	 0.0	 0.0	 0.0	 0	    1.02241	  -10.08576	 150.0	 9	    1.10000	    0.90000;
	278	 2	 0.0	 0.0	 0.0	 0.0	 0	    1.01288	   -6.56212	 110.0	 18	    1.10000	    0.90000;
	279	 1	 8.31	 3.0	 0.0	 0.99	 0	    1.03105	   -8.86285	 110.0	 19	    1.10000	    0.90000;
	280	 1	 119.6	 29.6	 0.0	 5.34	 0	    1.07810	   -5.66423	 220.0	 5	    1.10000	    0.90000;
	281	 1	 -0.0	 -0.0	 0.0	 18.07	 0	    1.07708	   -4.87639	 380.0	 8	    1.10000	    0.90000;
	282	 2	 0.0	 0.0	 0.0	 0.0	 0	    1.08536	   -0.42514	 380.0	 18	    1.10000	    0.90000;
	283	 1	 27.33	 11.9	 0.0	 1.17	 0	    1.06117	  -11.08076	 220.0	 5	    1.10000	    0.90000;
	284	 1	 191.2	 -3.4	 0.0	 19.21	 0	    1.06509	  -13.96714	 220.0	 4	    1.10000	    0.90000;
	285	 1	 0.0	 0.0	 0.029916	 18.291787	 0	    1.02879	    0.04310	 380.0	 1	    1.10000	    0.90000;
	286	 1	 101.6	 14.5	 0.0	 1.94	 0	    1.07037	   -5.35664	 154.0	 1	    1.10000	    0.90000;
	287	 1	 177.1	 66.9	 0.0	 71.03	 0	    1.07381	   -1.98373	 380.0	 16	    1.10000	    0.90000;
	288	 1	 0.0	 0.0	 0.0	 0.3	 0	    1.08889	   -5.57130	 150.0	 9	    1.10000	    0.90000;
	289	 2	 0.0	 0.0	 0.0	 0.0	 0	    1.02614	   -4.51621	 220.0	 6	    1.10000	    0.90000;
	290	 1	 53.46	 18.7	 0.0	 1.64	 0	    1.04820	   -1.04097	 220.0	 20	    1.10000	    0.90000;
	291	 1	 0.0	 -0.0	 0.0	 12.73	 0	    0.98167	   -0.52191	 220.0	 14	    1.10000	    0.90000;
	292	 1	 13.82	 1.4	 0.0	 0.7	 0	    1.09284	   -7.87358	 220.0	 5	    1.10000	    0.90000;
	293	 1	 85.1	 67.0	 0.0	 0.18	 0	    1.09120	   -6.00945	 150.0	 9	    1.10000	    0.90000;
	294	 2	 0.0	 0.0	 0.0	 0.0	 0	    1.07086	   -2.30134	 400.0	 1	    1.10000	    0.90000;
	295	 1	 0.0	 0.0	 0.0	 0.08	 0	    1.05023	   -3.39224	 220.0	 6	    1.10000	    0.90000;
	296	 1	 189.3	 76.7	 0.0	 3.24	 0	    1.00775	   -5.66607	 220.0	 3	    1.10000	    0.90000;
	297	 1	 23.73	 9.4	 0.0	 1.45	 0	    1.06223	  -15.27075	 150.0	 8	    1.10000	    0.90000;
	298	 1	 10.01	 -21.0	 0.0	 8.59	 0	    1.05268	  -10.51800	 220.0	 11	    1.10000	    0.90000;
	299	 2	 0.0	 0.0	 0.0	 0.0	 0	    1.10000	   -3.80923	 380.0	 4	    1.10000	    0.90000;
	300	 1	 0.0	 0.0	 0.0	 1.05	 0	    1.08221	   -6.82355	 150.0	 9	    1.10000	    0.90000;
	301	 1	 -14.85	 -4.95	 0.0	 0.37	 0	    1.02807	   -1.99673	 110.0	 18	    1.10000	    0.90000;
	302	 1	 20.9	 3.0	 0.0	 2.65	 0	    1.07799	   -4.80066	 154.0	 1	    1.10000	    0.90000;
	303	 1	 431.7	 121.6	 0.0	 1.14	 0	    1.01663	   -7.51308	 220.0	 21	    1.10000	    0.90000;
	304	 1	 2.2	 0.5	 0.0	 0.21	 0	    1.02577	  -17.91391	 150.0	 10	    1.10000	    0.90000;
	305	 1	 103.0	 12.0	 0.0	 0.63	 0	    1.08291	  -18.82993	 220.0	 5	    1.10000	    0.90000;
	306	 1	 -0.0	 0.0	 0.0	 4.76	 0	    1.04700	  -14.13849	 220.0	 5	    1.10000	    0.90000;
	307	 1	 0.0	 0.0	 0.0	 25.85	 0	    1.09607	   -5.44087	 380.0	 1	    1.10000	    0.90000;
	308	 1	 0.0	 0.0	 0.0	 0.0	 0	    0.84938	  -21.67790	 150.0	 9	    1.30000	    0.70000;
	309	 2	 0.0	 0.0	 0.0	 0.0	 0	    0.99645	   -9.31512	 220.0	 3	    1.10000	    0.90000;
	310	 2	 0.0	 0.0	 0.0	 0.0	 0	    1.12496	   -0.98233	 380.0	 9	    1.30000	    0.70000;
	311	 1	 42.05	 17.2	 0.0	 1.31	 0	    1.04655	  -14.85258	 150.0	 8	    1.10000	    0.90000;
	312	 1	 -0.16	 -2.91	 0.0	 0.43	 0	    1.09801	  -13.19739	 110.0	 8	    1.10000	    0.90000;
	313	 2	 0.0	 0.0	 0.0	 0.0	 0	    1.07892	   -3.65551	 154.0	 1	    1.10000	    0.90000;
	314	 1	 163.1	 46.3	 0.0	 10.6	 0	    1.02936	  -14.58960	 220.0	 5	    1.10000	    0.90000;
	315	 1	 -0.0	 -0.0	 0.0	 2.13	 0	    1.04097	   -6.09336	 220.0	 10	    1.10000	    0.90000;