%%%%%%%%%%%%%%%%%%%%%%%%%%%%%%%%%%%%%%%%%%%%%%%%%%%%%%%%%%%%%%%%%%%%%%%%%%%
%%%%                                                                  %%%%%
%%%%    IEEE PES Power Grid Library - Optimal Power Flow - v17.07     %%%%%
%%%%          (https://github.com/power-grid-lib/pglib-opf)           %%%%%
%%%%             Benchmark Group - Small Angle Difference             %%%%%
%%%%                         27 - June - 2017                         %%%%%
%%%%                                                                  %%%%%
%%%%%%%%%%%%%%%%%%%%%%%%%%%%%%%%%%%%%%%%%%%%%%%%%%%%%%%%%%%%%%%%%%%%%%%%%%%
function mpc = pglib_opf_case30_ieee__sad
mpc.version = '2';
mpc.baseMVA = 100.0;

%% bus data
%	bus_i	type	Pd	Qd	Gs	Bs	area	Vm	Va	baseKV	zone	Vmax	Vmin
mpc.bus = [
	1	 3	 0.0	 0.0	 0.0	 0.0	 1	    1.06000	   -0.00000	 132.0	 1	    1.06000	    0.94000;
	2	 2	 21.7	 12.7	 0.0	 0.0	 1	    1.03619	   -4.11544	 132.0	 1	    1.06000	    0.94000;
	3	 1	 2.4	 1.2	 0.0	 0.0	 1	    1.01530	   -6.85431	 132.0	 1	    1.06000	    0.94000;
	4	 1	 7.6	 1.6	 0.0	 0.0	 1	    1.00481	   -8.44617	 132.0	 1	    1.06000	    0.94000;
	5	 2	 94.2	 19.0	 0.0	 0.0	 1	    0.99893	  -13.14199	 132.0	 1	    1.06000	    0.94000;
	6	 1	 0.0	 0.0	 0.0	 0.0	 1	    1.00215	  -10.15704	 132.0	 1	    1.06000	    0.94000;
	7	 1	 22.8	 10.9	 0.0	 0.0	 1	    0.99295	  -11.92022	 132.0	 1	    1.06000	    0.94000;
	8	 2	 30.0	 30.0	 0.0	 0.0	 1	    1.00286	  -10.93431	 132.0	 1	    1.06000	    0.94000;
	9	 1	 0.0	 0.0	 0.0	 0.0	 1	    1.03696	  -13.26433	 1.0	 1	    1.06000	    0.94000;
	10	 1	 5.8	 2.0	 0.0	 19.0	 1	    1.03248	  -14.89464	 33.0	 1	    1.06000	    0.94000;
	11	 2	 0.0	 0.0	 0.0	 0.0	 1	    1.06000	  -13.26433	 11.0	 1	    1.06000	    0.94000;
	12	 1	 11.2	 7.5	 0.0	 0.0	 1	    1.04642	  -14.18496	 33.0	 1	    1.06000	    0.94000;
	13	 2	 0.0	 0.0	 0.0	 0.0	 1	    1.06000	  -14.18496	 11.0	 1	    1.06000	    0.94000;
	14	 1	 6.2	 1.6	 0.0	 0.0	 1	    1.03122	  -15.09046	 33.0	 1	    1.06000	    0.94000;
	15	 1	 8.2	 2.5	 0.0	 0.0	 1	    1.02642	  -15.17456	 33.0	 1	    1.06000	    0.94000;
	16	 1	 3.5	 1.8	 0.0	 0.0	 1	    1.03281	  -14.74997	 33.0	 1	    1.06000	    0.94000;
	17	 1	 9.0	 5.8	 0.0	 0.0	 1	    1.02752	  -15.07174	 33.0	 1	    1.06000	    0.94000;
	18	 1	 3.2	 0.9	 0.0	 0.0	 1	    1.01626	  -15.78663	 33.0	 1	    1.06000	    0.94000;
	19	 1	 9.5	 3.4	 0.0	 0.0	 1	    1.01342	  -15.95472	 33.0	 1	    1.06000	    0.94000;
	20	 1	 2.2	 0.7	 0.0	 0.0	 1	    1.01739	  -15.74817	 33.0	 1	    1.06000	    0.94000;
	21	 1	 17.5	 11.2	 0.0	 0.0	 1	    1.02010	  -15.34973	 33.0	 1	    1.06000	    0.94000;
	22	 1	 0.0	 0.0	 0.0	 0.0	 1	    1.02069	  -15.33567	 33.0	 1	    1.06000	    0.94000;
	23	 1	 3.2	 1.6	 0.0	 0.0	 1	    1.01557	  -15.56043	 33.0	 1	    1.06000	    0.94000;
	24	 1	 8.7	 6.7	 0.0	 4.3	 1	    1.00960	  -15.72277	 33.0	 1	    1.06000	    0.94000;
	25	 1	 0.0	 0.0	 0.0	 0.0	 1	    1.00658	  -15.28886	 33.0	 1	    1.06000	    0.94000;
	26	 1	 3.5	 2.3	 0.0	 0.0	 1	    0.98871	  -15.71770	 33.0	 1	    1.06000	    0.94000;
	27	 1	 0.0	 0.0	 0.0	 0.0	 1	    1.01335	  -14.75426	 33.0	 1	    1.06000	    0.94000;
	28	 1	 0.0	 0.0	 0.0	 0.0	 1	    0.99869	  -10.79549	 132.0	 1	    1.06000	    0.94000;
	29	 1	 2.4	 0.9	 0.0	 0.0	 1	    0.99330	  -16.00885	 33.0	 1	    1.06000	    0.94000;
	30	 1	 10.6	 1.9	 0.0	 0.0	 1	    0.98170	  -16.90995	 33.0	 1	    1.06000	    0.94000;
];

%% generator data
%	bus	Pg	Qg	Qmax	Qmin	Vg	mBase	status	Pmax	Pmin	Pc1	Pc2	Qc1min	Qc1max	Qc2min	Qc2max	ramp_agc	ramp_10	ramp_30	ramp_q	apf
mpc.gen = [
	1	 218.82	 8.696	 10.0	 0.0	 1.06	 100.0	 1	 271.0	 0.0	 0.0	 0.0	 0.0	 0.0	 0.0	 0.0	 0.0	 0.0	 0.0	 0.0	 0.0;
	2	 80.06	 24.367	 46.0	 -40.0	 1.03619	 100.0	 1	 92.0	 0.0	 0.0	 0.0	 0.0	 0.0	 0.0	 0.0	 0.0	 0.0	 0.0	 0.0	 0.0;
	5	 0.0	 33.561	 40.0	 -40.0	 0.99893	 100.0	 1	 0.0	 0.0	 0.0	 0.0	 0.0	 0.0	 0.0	 0.0	 0.0	 0.0	 0.0	 0.0	 0.0;
	8	 0.0	 40.0	 40.0	 -10.0	 1.00286	 100.0	 1	 0.0	 0.0	 0.0	 0.0	 0.0	 0.0	 0.0	 0.0	 0.0	 0.0	 0.0	 0.0	 0.0;
	11	 0.0	 11.74	 24.0	 -6.0	 1.06	 100.0	 1	 0.0	 0.0	 0.0	 0.0	 0.0	 0.0	 0.0	 0.0	 0.0	 0.0	 0.0	 0.0	 0.0;
	13	 0.0	 10.28	 24.0	 -6.0	 1.06	 100.0	 1	 0.0	 0.0	 0.0	 0.0	 0.0	 0.0	 0.0	 0.0	 0.0	 0.0	 0.0	 0.0	 0.0;
];

%% generator cost data
%	2	startup	shutdown	n	c(n-1)	...	c0
mpc.gencost = [
	2	 0.0	 0.0	 3	   0.000000	   0.771025	   0.000000;
	2	 0.0	 0.0	 3	   0.000000	   1.387763	   0.000000;
	2	 0.0	 0.0	 3	   0.000000	   0.000000	   0.000000;
	2	 0.0	 0.0	 3	   0.000000	   0.000000	   0.000000;
	2	 0.0	 0.0	 3	   0.000000	   0.000000	   0.000000;
	2	 0.0	 0.0	 3	   0.000000	   0.000000	   0.000000;
];

%% branch data
%	fbus	tbus	r	x	b	rateA	rateB	rateC	ratio	angle	status	angmin	angmax
mpc.branch = [
	1	 2	 0.0192	 0.0575	 0.0528	 138.0	 138.0	 138.0	 0.0	 0.0	 1	 -9.207583	 9.207583;
	1	 3	 0.0452	 0.1652	 0.0408	 152.0	 152.0	 152.0	 0.0	 0.0	 1	 -9.207583	 9.207583;
	2	 4	 0.057	 0.1737	 0.0368	 139.0	 139.0	 139.0	 0.0	 0.0	 1	 -9.207583	 9.207583;
	3	 4	 0.0132	 0.0379	 0.0084	 135.0	 135.0	 135.0	 0.0	 0.0	 1	 -9.207583	 9.207583;
	2	 5	 0.0472	 0.1983	 0.0418	 144.0	 144.0	 144.0	 0.0	 0.0	 1	 -9.207583	 9.207583;
	2	 6	 0.0581	 0.1763	 0.0374	 139.0	 139.0	 139.0	 0.0	 0.0	 1	 -9.207583	 9.207583;
	4	 6	 0.0119	 0.0414	 0.009	 148.0	 148.0	 148.0	 0.0	 0.0	 1	 -9.207583	 9.207583;
	5	 7	 0.046	 0.116	 0.0204	 127.0	 127.0	 127.0	 0.0	 0.0	 1	 -9.207583	 9.207583;
	6	 7	 0.0267	 0.082	 0.017	 140.0	 140.0	 140.0	 0.0	 0.0	 1	 -9.207583	 9.207583;
	6	 8	 0.012	 0.042	 0.009	 148.0	 148.0	 148.0	 0.0	 0.0	 1	 -9.207583	 9.207583;
	6	 9	 0.0	 0.208	 0.0	 142.0	 142.0	 142.0	 0.978	 0.0	 1	 -9.207583	 9.207583;
	6	 10	 0.0	 0.556	 0.0	 53.0	 53.0	 53.0	 0.969	 0.0	 1	 -9.207583	 9.207583;
	9	 11	 0.0	 0.208	 0.0	 142.0	 142.0	 142.0	 0.0	 0.0	 1	 -9.207583	 9.207583;
	9	 10	 0.0	 0.11	 0.0	 267.0	 267.0	 267.0	 0.0	 0.0	 1	 -9.207583	 9.207583;
	4	 12	 0.0	 0.256	 0.0	 115.0	 115.0	 115.0	 0.932	 0.0	 1	 -9.207583	 9.207583;
	12	 13	 0.0	 0.14	 0.0	 210.0	 210.0	 210.0	 0.0	 0.0	 1	 -9.207583	 9.207583;
	12	 14	 0.1231	 0.2559	 0.0	 29.0	 29.0	 29.0	 0.0	 0.0	 1	 -9.207583	 9.207583;
	12	 15	 0.0662	 0.1304	 0.0	 29.0	 29.0	 29.0	 0.0	 0.0	 1	 -9.207583	 9.207583;
	12	 16	 0.0945	 0.1987	 0.0	 30.0	 30.0	 30.0	 0.0	 0.0	 1	 -9.207583	 9.207583;
	14	 15	 0.221	 0.1997	 0.0	 20.0	 20.0	 20.0	 0.0	 0.0	 1	 -9.207583	 9.207583;
	16	 17	 0.0524	 0.1923	 0.0	 38.0	 38.0	 38.0	 0.0	 0.0	 1	 -9.207583	 9.207583;
	15	 18	 0.1073	 0.2185	 0.0	 29.0	 29.0	 29.0	 0.0	 0.0	 1	 -9.207583	 9.207583;
	18	 19	 0.0639	 0.1292	 0.0	 29.0	 29.0	 29.0	 0.0	 0.0	 1	 -9.207583	 9.207583;
	19	 20	 0.034	 0.068	 0.0	 29.0	 29.0	 29.0	 0.0	 0.0	 1	 -9.207583	 9.207583;
	10	 20	 0.0936	 0.209	 0.0	 30.0	 30.0	 30.0	 0.0	 0.0	 1	 -9.207583	 9.207583;
	10	 17	 0.0324	 0.0845	 0.0	 33.0	 33.0	 33.0	 0.0	 0.0	 1	 -9.207583	 9.207583;
	10	 21	 0.0348	 0.0749	 0.0	 30.0	 30.0	 30.0	 0.0	 0.0	 1	 -9.207583	 9.207583;
	10	 22	 0.0727	 0.1499	 0.0	 29.0	 29.0	 29.0	 0.0	 0.0	 1	 -9.207583	 9.207583;
	21	 22	 0.0116	 0.0236	 0.0	 29.0	 29.0	 29.0	 0.0	 0.0	 1	 -9.207583	 9.207583;
	15	 23	 0.1	 0.202	 0.0	 29.0	 29.0	 29.0	 0.0	 0.0	 1	 -9.207583	 9.207583;
	22	 24	 0.115	 0.179	 0.0	 26.0	 26.0	 26.0	 0.0	 0.0	 1	 -9.207583	 9.207583;
	23	 24	 0.132	 0.27	 0.0	 29.0	 29.0	 29.0	 0.0	 0.0	 1	 -9.207583	 9.207583;
	24	 25	 0.1885	 0.3292	 0.0	 27.0	 27.0	 27.0	 0.0	 0.0	 1	 -9.207583	 9.207583;
	25	 26	 0.2544	 0.38	 0.0	 25.0	 25.0	 25.0	 0.0	 0.0	 1	 -9.207583	 9.207583;
	25	 27	 0.1093	 0.2087	 0.0	 28.0	 28.0	 28.0	 0.0	 0.0	 1	 -9.207583	 9.207583;
	28	 27	 0.0	 0.396	 0.0	 75.0	 75.0	 75.0	 0.968	 0.0	 1	 -9.207583	 9.207583;
	27	 29	 0.2198	 0.4153	 0.0	 28.0	 28.0	 28.0	 0.0	 0.0	 1	 -9.207583	 9.207583;
	27	 30	 0.3202	 0.6027	 0.0	 28.0	 28.0	 28.0	 0.0	 0.0	 1	 -9.207583	 9.207583;
	29	 30	 0.2399	 0.4533	 0.0	 28.0	 28.0	 28.0	 0.0	 0.0	 1	 -9.207583	 9.207583;
	8	 28	 0.0636	 0.2	 0.0428	 140.0	 140.0	 140.0	 0.0	 0.0	 1	 -9.207583	 9.207583;
	6	 28	 0.0169	 0.0599	 0.013	 149.0	 149.0	 149.0	 0.0	 0.0	 1	 -9.207583	 9.207583;
];

% INFO    : === Translation Options ===
% INFO    : Phase Angle Bound:           9.207583 (deg.)
% INFO    : AC OPF Solution File:        ./pglib_opf_case30_ieee__sad.m.opf.sol
% INFO    : 
% INFO    : === Voltage Setpoint Replacement Notes ===
% INFO    : Bus 1	: V=1.06, theta=0.0 -> V=1.06, theta=-0.0
% INFO    : Bus 2	: V=1.03619, theta=-4.11544 -> V=1.03619, theta=-4.11544
% INFO    : Bus 3	: V=1.0153, theta=-6.85431 -> V=1.0153, theta=-6.85431
% INFO    : Bus 4	: V=1.00481, theta=-8.44617 -> V=1.00481, theta=-8.44617
% INFO    : Bus 5	: V=0.99893, theta=-13.14199 -> V=0.99893, theta=-13.14199
% INFO    : Bus 6	: V=1.00215, theta=-10.15704 -> V=1.00215, theta=-10.15704
% INFO    : Bus 7	: V=0.99295, theta=-11.92022 -> V=0.99295, theta=-11.92022
% INFO    : Bus 8	: V=1.00286, theta=-10.93431 -> V=1.00286, theta=-10.93431
% INFO    : Bus 9	: V=1.03696, theta=-13.26433 -> V=1.03696, theta=-13.26433
% INFO    : Bus 10	: V=1.03248, theta=-14.89464 -> V=1.03248, theta=-14.89464
% INFO    : Bus 11	: V=1.06, theta=-13.26433 -> V=1.06, theta=-13.26433
% INFO    : Bus 12	: V=1.04642, theta=-14.18496 -> V=1.04642, theta=-14.18496
% INFO    : Bus 13	: V=1.06, theta=-14.18496 -> V=1.06, theta=-14.18496
% INFO    : Bus 14	: V=1.03122, theta=-15.09046 -> V=1.03122, theta=-15.09046
% INFO    : Bus 15	: V=1.02642, theta=-15.17456 -> V=1.02642, theta=-15.17456
% INFO    : Bus 16	: V=1.03281, theta=-14.74997 -> V=1.03281, theta=-14.74997
% INFO    : Bus 17	: V=1.02752, theta=-15.07174 -> V=1.02752, theta=-15.07174
% INFO    : Bus 18	: V=1.01626, theta=-15.78663 -> V=1.01626, theta=-15.78663
% INFO    : Bus 19	: V=1.01342, theta=-15.95472 -> V=1.01342, theta=-15.95472
% INFO    : Bus 20	: V=1.01739, theta=-15.74817 -> V=1.01739, theta=-15.74817
% INFO    : Bus 21	: V=1.0201, theta=-15.34973 -> V=1.0201, theta=-15.34973
% INFO    : Bus 22	: V=1.02069, theta=-15.33567 -> V=1.02069, theta=-15.33567
% INFO    : Bus 23	: V=1.01557, theta=-15.56043 -> V=1.01557, theta=-15.56043
% INFO    : Bus 24	: V=1.0096, theta=-15.72277 -> V=1.0096, theta=-15.72277
% INFO    : Bus 25	: V=1.00658, theta=-15.28886 -> V=1.00658, theta=-15.28886
% INFO    : Bus 26	: V=0.98871, theta=-15.7177 -> V=0.98871, theta=-15.7177
% INFO    : Bus 27	: V=1.01335, theta=-14.75426 -> V=1.01335, theta=-14.75426
% INFO    : Bus 28	: V=0.99869, theta=-10.79549 -> V=0.99869, theta=-10.79549
% INFO    : Bus 29	: V=0.9933, theta=-16.00885 -> V=0.9933, theta=-16.00885
% INFO    : Bus 30	: V=0.9817, theta=-16.90995 -> V=0.9817, theta=-16.90995
% INFO    : 
% INFO    : === Generator Setpoint Replacement Notes ===
% INFO    : Gen at bus 1	: Pg=218.82, Qg=8.696 -> Pg=218.82, Qg=8.696
% INFO    : Gen at bus 1	: Vg=1.06 -> Vg=1.06
% INFO    : Gen at bus 2	: Pg=80.06, Qg=24.367 -> Pg=80.06, Qg=24.367
% INFO    : Gen at bus 2	: Vg=1.03619 -> Vg=1.03619
% INFO    : Gen at bus 5	: Pg=0.0, Qg=33.561 -> Pg=0.0, Qg=33.561
% INFO    : Gen at bus 5	: Vg=0.99893 -> Vg=0.99893
% INFO    : Gen at bus 8	: Pg=0.0, Qg=40.0 -> Pg=0.0, Qg=40.0
% INFO    : Gen at bus 8	: Vg=1.00286 -> Vg=1.00286
% INFO    : Gen at bus 11	: Pg=0.0, Qg=11.74 -> Pg=0.0, Qg=11.74
% INFO    : Gen at bus 11	: Vg=1.06 -> Vg=1.06
% INFO    : Gen at bus 13	: Pg=0.0, Qg=10.28 -> Pg=0.0, Qg=10.28
% INFO    : Gen at bus 13	: Vg=1.06 -> Vg=1.06
% INFO    : 
% INFO    : === Writing Matpower Case File Notes ===
