%%%%%%%%%%%%%%%%%%%%%%%%%%%%%%%%%%%%%%%%%%%%%%%%%%%%%%%%%%%%%%%%%%%%%%%%%%%
%%%%                                                                  %%%%%
%%%%    IEEE PES Power Grid Library - Optimal Power Flow - v17.07     %%%%%
%%%%          (https://github.com/power-grid-lib/pglib-opf)           %%%%%
%%%%             Benchmark Group - Small Angle Difference             %%%%%
%%%%                         27 - June - 2017                         %%%%%
%%%%                                                                  %%%%%
%%%%%%%%%%%%%%%%%%%%%%%%%%%%%%%%%%%%%%%%%%%%%%%%%%%%%%%%%%%%%%%%%%%%%%%%%%%
function mpc = pglib_opf_case6495_rte__sad
mpc.version = '2';
mpc.baseMVA = 100.0;

%% bus data
%	bus_i	type	Pd	Qd	Gs	Bs	area	Vm	Va	baseKV	zone	Vmax	Vmin
mpc.bus = [
	1	 1	 0.0	 0.0	 0.0	 0.0	 1	    0.99480	  -33.44652	 45.0	 1	    1.00000	    0.88889;
	2	 1	 0.0	 0.0	 0.0	 0.0	 1	    1.04714	  -15.04139	 63.0	 1	    1.06349	    0.93651;
	3	 1	 13.1	 2.6	 0.0	 0.0	 1	    0.98945	  -32.36081	 63.0	 1	    1.07937	    0.95238;
	4	 1	 49.2	 3.4	 0.0	 0.0	 1	    1.06154	  -28.86861	 90.0	 1	    1.08889	    0.93333;
	5	 1	 11.0	 0.0	 0.0	 0.0	 1	    1.02738	  -50.10518	 63.0	 1	    1.06349	    0.95238;
	6	 1	 13.0	 4.3	 0.0	 0.0	 1	    1.01986	  -12.93194	 63.0	 1	    1.07937	    0.92063;
	7	 1	 1.2	 0.7	 0.0	 0.0	 1	    1.05452	  -14.41049	 63.0	 1	    1.07937	    0.92063;
	8	 1	 24.6	 13.1	 0.0	 0.0	 1	    1.06450	  -24.03508	 225.0	 1	    1.08889	    0.88889;
	9	 1	 14.9	 0.0	 0.0	 0.0	 1	    1.04208	  -38.61400	 63.0	 1	    1.06349	    0.93651;
	10	 1	 0.0	 0.0	 0.0	 0.0	 1	    1.06261	  -27.71039	 90.0	 1	    1.07778	    0.92222;
	11	 1	 30.7	 -2.0	 0.0	 0.0	 1	    1.06261	  -27.71039	 90.0	 1	    1.07778	    0.92222;
	12	 1	 0.0	 0.0	 0.0	 0.0	 1	    1.02299	  -20.25976	 63.0	 1	    1.07937	    0.95238;
	13	 1	 0.0	 0.0	 0.0	 0.0	 1	    1.07811	   -3.43137	 380.0	 1	    1.10263	    1.05313;
	14	 1	 52.7	 13.4	 0.0	 30.4	 1	    1.07665	  -30.92936	 90.0	 1	    1.07778	    0.97778;
	15	 1	 0.0	 0.0	 0.0	 0.0	 1	    1.02665	  -13.64986	 63.0	 1	    1.07937	    0.92063;
	16	 1	 12.5	 -0.6	 0.0	 0.0	 1	    1.04438	  -19.94800	 63.0	 1	    1.07937	    0.92063;
	17	 1	 10.9	 0.2	 0.0	 0.0	 1	    1.04922	  -26.29235	 90.0	 1	    1.06667	    0.97778;
	18	 1	 0.0	 0.0	 0.0	 0.0	 1	    0.96486	  -26.75905	 45.0	 1	    1.00000	    0.88889;
	19	 1	 0.0	 0.0	 0.0	 0.0	 1	    1.04547	  -21.62683	 63.0	 1	    1.06349	    0.93651;
	20	 1	 3.9	 -18.2	 0.0	 0.0	 1	    0.96562	  -26.79181	 45.0	 1	    1.00000	    0.88889;
	21	 1	 6.3	 -2.5	 0.0	 0.0	 1	    1.03910	  -14.87318	 90.0	 1	    1.06667	    0.97778;
	22	 1	 17.3	 0.8	 0.0	 0.0	 1	    1.04782	  -23.31382	 63.0	 1	    1.07937	    0.95238;
	23	 1	 24.4	 1.4	 0.0	 0.0	 1	    1.05289	  -32.17347	 63.0	 1	    1.06349	    0.93651;
	24	 1	 16.7	 -1.3	 0.0	 0.0	 1	    1.06426	  -27.20843	 90.0	 1	    1.11111	    0.95556;
	25	 1	 51.1	 -4.0	 0.0	 0.0	 1	    1.09380	  -24.69412	 90.0	 1	    1.10000	    0.94444;
	26	 1	 32.4	 5.0	 0.0	 0.0	 1	    1.03974	  -22.34573	 90.0	 1	    1.06667	    0.97778;
	27	 1	 0.0	 0.0	 0.0	 0.0	 1	    1.07216	  -17.80964	 225.0	 1	    1.08444	    1.00444;
	28	 1	 0.0	 -0.2	 0.0	 0.0	 1	    1.03419	  -32.44117	 63.0	 1	    1.07937	    0.95238;
	29	 1	 75.0	 9.3	 0.0	 0.0	 1	    1.03402	  -20.19275	 63.0	 1	    1.06349	    0.96825;
	30	 1	 37.6	 3.3	 0.0	 0.0	 1	    1.05922	  -27.87202	 90.0	 1	    1.08889	    0.93333;
	31	 1	 0.0	 0.0	 0.0	 0.0	 1	    1.05663	  -29.26168	 63.0	 1	    1.06349	    0.93651;
	32	 1	 0.0	 0.0	 0.0	 0.0	 1	    1.09448	  -26.13913	 150.0	 1	    1.10667	    0.90000;
	33	 1	 0.0	 0.0	 0.0	 0.0	 1	    1.06878	  -25.89354	 225.0	 1	    1.08889	    0.93333;
	34	 1	 0.0	 0.0	 0.0	 0.0	 1	    1.07706	  -25.96139	 225.0	 1	    1.08889	    0.93333;
	35	 1	 0.0	 0.0	 0.0	 0.0	 1	    1.05396	  -21.13635	 380.0	 1	    1.10526	    1.03947;
	36	 1	 0.0	 0.0	 0.0	 0.0	 1	    1.03947	  -19.88925	 380.0	 1	    1.10526	    1.03947;
	37	 1	 2.4	 4.7	 0.0	 0.0	 1	    1.00897	  -17.60766	 63.0	 1	    1.07937	    0.92063;
	38	 1	 8.0	 3.0	 0.0	 0.0	 1	    1.05214	  -27.33628	 63.0	 1	    1.09524	    0.93651;
	39	 1	 40.6	 -4.9	 0.0	 0.0	 1	    1.02228	  -38.60059	 90.0	 1	    1.07778	    0.97778;
	40	 1	 34.7	 5.1	 0.0	 0.0	 1	    1.06362	  -29.04610	 90.0	 1	    1.07778	    0.97778;
	41	 1	 0.0	 0.0	 0.0	 0.0	 1	    1.08978	  -29.04593	 225.0	 1	    1.09152	    1.00444;
	42	 1	 0.0	 0.0	 0.0	 0.0	 1	    1.12797	  -15.43736	 63.0	 1	    1.12834	    0.95238;
	43	 1	 3.3	 2.7	 0.0	 0.0	 1	    1.05948	  -29.51417	 90.0	 1	    1.07778	    0.97778;
	44	 1	 15.2	 1.6	 0.0	 0.0	 1	    1.03374	  -47.03381	 63.0	 1	    1.06349	    0.95238;
	45	 1	 3.8	 0.8	 0.0	 0.0	 1	    1.02677	  -31.97990	 90.0	 1	    1.06667	    0.97778;
	46	 1	 0.0	 0.0	 0.0	 0.0	 1	    1.05251	  -31.56678	 63.0	 1	    1.06349	    0.93651;
	47	 2	 0.0	 0.0	 0.0	 0.0	 1	    1.06349	  -29.77375	 63.0	 1	    1.06349	    0.93651;
	48	 1	 38.6	 3.9	 0.0	 0.0	 1	    1.05554	  -28.67749	 90.0	 1	    1.07778	    0.92222;
	49	 1	 9.9	 -2.6	 0.0	 0.0	 1	    1.03069	  -22.44905	 63.0	 1	    1.06349	    0.93651;
	50	 1	 0.0	 0.0	 0.0	 0.0	 1	    1.06718	  -34.31497	 63.0	 1	    1.07458	    0.93651;
	51	 1	 0.0	 0.0	 0.0	 0.0	 1	    1.05203	  -29.55501	 225.0	 1	    1.08889	    0.93333;
	52	 1	 8.0	 3.5	 0.0	 0.0	 1	    1.04011	  -33.44099	 90.0	 1	    1.06667	    0.97778;
	53	 1	 0.1	 -1.2	 0.0	 0.0	 1	    1.02191	  -31.69159	 63.0	 1	    1.04762	    0.95238;
	54	 1	 -0.6	 1.2	 0.0	 0.0	 1	    1.04683	  -16.92109	 90.0	 1	    1.06667	    0.97778;
	55	 1	 49.0	 11.3	 0.0	 0.0	 1	    1.08989	  -32.41020	 225.0	 1	    1.08991	    1.00444;
	56	 1	 78.6	 22.5	 0.0	 0.0	 1	    1.07999	  -30.21182	 225.0	 1	    1.08889	    1.00444;
	57	 2	 0.0	 0.0	 0.0	 0.0	 1	    1.05610	   -6.90178	 63.0	 1	    1.07937	    0.92063;
	58	 1	 146.7	 32.5	 0.0	 0.0	 1	    1.08973	  -32.42484	 225.0	 1	    1.08975	    1.00444;
	59	 1	 5.1	 0.4	 0.0	 0.0	 1	    1.01326	  -30.54142	 63.0	 1	    1.07937	    0.95238;
	60	 1	 0.0	 0.0	 0.0	 0.0	 1	    1.03256	  -25.19513	 63.0	 1	    1.07937	    0.95238;
	61	 1	 41.4	 11.6	 0.0	 0.0	 1	    0.99784	  -27.67828	 63.0	 1	    1.07937	    0.95238;
	62	 1	 0.0	 0.0	 0.0	 0.0	 1	    1.01538	  -25.45414	 63.0	 1	    1.07937	    0.95238;
	63	 1	 15.8	 2.0	 0.0	 0.0	 1	    1.01635	  -19.13596	 63.0	 1	    1.07937	    0.95238;
	64	 1	 64.3	 5.4	 0.0	 0.0	 1	    1.08195	  -22.26001	 225.0	 1	    1.08889	    0.88889;
	65	 1	 12.0	 2.9	 0.0	 0.0	 1	    1.00763	  -28.34423	 63.0	 1	    1.07937	    0.95238;
	66	 1	 14.4	 -6.8	 0.0	 0.0	 1	    1.04815	  -24.47302	 63.0	 1	    1.06349	    0.93651;
	67	 1	 1.0	 0.0	 0.0	 0.0	 1	    1.04118	  -14.62102	 63.0	 1	    1.07937	    0.92063;
	68	 1	 48.7	 3.8	 0.0	 0.0	 1	    1.01098	  -23.23215	 63.0	 1	    1.06349	    0.93651;
	69	 1	 17.3	 -1.6	 0.0	 0.0	 1	    1.05125	  -51.15790	 63.0	 1	    1.06349	    0.95238;
	70	 1	 11.7	 3.5	 0.0	 0.0	 1	    1.02848	  -19.05596	 63.0	 1	    1.07937	    0.95238;
	71	 1	 68.8	 17.2	 0.0	 0.0	 1	    1.04138	  -32.68878	 63.0	 1	    1.04762	    0.95238;
	72	 1	 0.0	 0.0	 0.0	 0.0	 1	    1.08890	  -22.14466	 225.0	 1	    1.08892	    1.00444;
	73	 1	 0.0	 0.0	 0.0	 0.0	 1	    1.08890	  -22.14466	 225.0	 1	    1.08892	    1.00444;
	74	 1	 53.3	 -8.7	 0.0	 0.0	 1	    1.08240	  -22.15966	 225.0	 1	    1.08889	    0.88889;
	75	 1	 25.0	 1.6	 0.0	 0.0	 1	    1.06232	  -25.32156	 90.0	 1	    1.06667	    0.97778;
	76	 1	 9.0	 0.7	 0.0	 0.0	 1	    1.08053	  -16.12084	 225.0	 1	    1.08889	    0.98667;
	77	 1	 40.8	 -1.5	 0.0	 0.0	 1	    1.00986	  -25.14175	 63.0	 1	    1.06349	    0.93651;
	78	 1	 0.0	 0.0	 0.0	 0.0	 1	    1.02641	  -16.12518	 63.0	 1	    1.07937	    0.92063;
	79	 1	 0.0	 0.0	 0.0	 0.0	 1	    1.02005	  -30.87052	 63.0	 1	    1.04762	    0.95238;
	80	 1	 34.6	 10.4	 0.0	 0.0	 1	    1.06345	  -30.74423	 225.0	 1	    1.08889	    1.00444;
	81	 1	 34.6	 9.0	 0.0	 0.0	 1	    1.06347	  -30.74416	 225.0	 1	    1.08889	    1.00444;
	82	 1	 11.6	 -0.2	 0.0	 0.0	 1	    1.04061	  -21.56987	 63.0	 1	    1.06349	    0.93651;
	83	 1	 92.4	 64.5	 0.0	 0.0	 1	    1.07247	  -29.57596	 225.0	 1	    1.08889	    1.00444;
	84	 1	 1.4	 -0.2	 0.0	 0.0	 1	    1.04998	  -15.66871	 63.0	 1	    1.06349	    0.93651;
	85	 1	 1.8	 -2.0	 0.0	 0.0	 1	    1.05312	  -11.21823	 63.0	 1	    1.06568	    0.93651;
	86	 1	 44.9	 3.7	 0.0	 0.0	 1	    1.03888	  -39.55639	 90.0	 1	    1.06667	    0.97778;
	87	 1	 0.0	 0.0	 0.0	 0.0	 1	    1.03083	  -19.67997	 63.0	 1	    1.07937	    0.95238;
	88	 1	 15.9	 2.0	 0.0	 0.0	 1	    1.05589	  -17.32241	 63.0	 1	    1.06349	    0.93651;
	89	 1	 25.7	 0.4	 0.0	 0.0	 1	    1.05583	  -31.99097	 90.0	 1	    1.07778	    0.97778;
	90	 1	 0.4	 -2.3	 0.0	 0.0	 1	    0.96653	  -27.20363	 45.0	 1	    1.00000	    0.88889;
	91	 1	 0.0	 0.0	 0.0	 0.0	 1	    0.96486	  -26.75905	 45.0	 1	    1.00000	    0.88889;
	92	 1	 31.6	 3.2	 0.0	 0.0	 1	    1.03399	  -15.94005	 63.0	 1	    1.06349	    0.96825;
	93	 1	 2.2	 -2.2	 0.0	 0.0	 1	    0.98039	  -28.56736	 45.0	 1	    1.00000	    0.88889;
	94	 1	 16.9	 -4.6	 0.0	 0.0	 1	    1.05279	  -22.99456	 90.0	 1	    1.06667	    0.97778;
	95	 1	 53.2	 9.3	 0.0	 0.0	 1	    1.04018	  -32.90564	 90.0	 1	    1.06667	    0.97778;
	96	 1	 1.2	 0.1	 0.0	 0.0	 1	    1.05686	  -29.41072	 63.0	 1	    1.06349	    0.93651;
	97	 1	 55.0	 1.6	 0.0	 0.0	 1	    1.06042	  -15.87517	 63.0	 1	    1.07937	    0.92063;
	98	 1	 7.7	 -2.1	 0.0	 0.0	 1	    1.03951	  -27.02412	 63.0	 1	    1.07937	    0.95238;
	99	 1	 31.9	 5.0	 0.0	 0.0	 1	    1.00407	  -27.36220	 63.0	 1	    1.07937	    0.95238;
	100	 1	 59.9	 8.9	 0.0	 0.0	 1	    1.01866	  -35.07445	 63.0	 1	    1.06349	    0.93651;
	101	 1	 17.1	 0.1	 0.0	 0.0	 1	    1.04746	  -16.02416	 63.0	 1	    1.06349	    0.93651;
	102	 2	 0.0	 0.0	 0.0	 0.0	 1	    1.05253	  -11.25372	 63.0	 1	    1.07937	    0.95238;
	103	 1	 13.0	 -1.4	 0.0	 0.0	 1	    1.02267	  -24.73561	 63.0	 1	    1.07937	    0.95238;
	104	 1	 0.0	 0.0	 0.0	 0.0	 1	    1.05224	  -22.17161	 225.0	 1	    1.08889	    0.98667;
	105	 1	 37.7	 0.8	 0.0	 0.0	 1	    1.06269	  -22.82364	 225.0	 1	    1.08889	    0.88889;
	106	 1	 56.3	 8.2	 0.0	 0.0	 1	    1.07433	  -27.43365	 90.0	 1	    1.10000	    0.94444;
	107	 1	 107.4	 13.9	 0.0	 0.0	 1	    1.05133	  -28.70596	 225.0	 1	    1.08444	    1.00889;
	108	 1	 12.7	 -3.9	 0.0	 0.0	 1	    1.06325	  -26.61574	 90.0	 1	    1.07778	    0.97778;
	109	 1	 60.8	 4.1	 0.0	 0.0	 1	    1.05743	  -19.27052	 63.0	 1	    1.06837	    0.93651;
	110	 1	 0.0	 0.0	 0.0	 0.0	 1	    1.03503	  -17.69860	 225.0	 1	    1.08889	    0.93333;
	111	 1	 37.3	 -7.4	 0.0	 0.0	 1	    1.03138	  -18.30838	 63.0	 1	    1.06349	    0.96825;
	112	 1	 0.0	 0.0	 0.0	 0.0	 1	    1.03829	  -30.58259	 63.0	 1	    1.04762	    0.95238;
	113	 1	 0.0	 0.0	 0.0	 0.0	 1	    1.06961	  -27.20482	 225.0	 1	    1.08889	    1.00444;
	114	 1	 12.9	 0.7	 0.0	 0.0	 1	    1.04991	  -34.39769	 63.0	 1	    1.06349	    0.93651;
	115	 1	 0.0	 0.0	 0.0	 0.0	 1	    1.07812	   -3.43145	 380.0	 1	    1.10526	    1.05263;
	116	 1	 0.0	 0.0	 0.0	 0.0	 1	    1.07812	   -3.43145	 380.0	 1	    1.10526	    1.05263;
	117	 1	 12.8	 -2.1	 0.0	 0.0	 1	    1.01631	  -33.44869	 63.0	 1	    1.07937	    0.95238;
	118	 1	 2.0	 0.8	 0.0	 0.0	 1	    1.06467	  -25.00796	 90.0	 1	    1.06667	    0.97778;
	119	 1	 40.3	 3.7	 0.0	 0.0	 1	    0.99531	  -17.41969	 63.0	 1	    1.06349	    0.93651;
	120	 1	 22.0	 -2.3	 0.0	 0.0	 1	    1.06162	  -31.96624	 63.0	 1	    1.06349	    0.93651;
	121	 1	 22.1	 6.8	 0.0	 0.0	 1	    1.02585	  -19.55806	 63.0	 1	    1.07937	    0.92063;
	122	 2	 0.0	 0.0	 0.0	 0.0	 1	    1.03243	  -24.95966	 63.0	 1	    1.07937	    0.95238;
	123	 1	 11.0	 3.7	 0.0	 0.0	 1	    1.02931	  -25.12612	 63.0	 1	    1.07937	    0.95238;
	124	 1	 8.9	 -2.2	 0.0	 0.0	 1	    1.04934	  -23.13731	 90.0	 1	    1.06667	    0.97778;
	125	 1	 11.6	 -1.2	 0.0	 0.0	 1	    1.05871	  -21.95810	 63.0	 1	    1.07937	    0.95238;
	126	 1	 0.4	 0.3	 0.0	 0.0	 1	    1.04847	  -10.39844	 63.0	 1	    1.06349	    0.93651;
	127	 1	 10.7	 2.9	 0.0	 0.0	 1	    1.01646	  -33.38314	 63.0	 1	    1.04762	    0.95238;
	128	 1	 13.4	 5.0	 0.0	 0.0	 1	    1.05120	   -8.67372	 63.0	 1	    1.06349	    0.96825;
	129	 1	 17.0	 12.8	 0.0	 0.0	 1	    1.05650	   -6.54497	 63.0	 1	    1.06349	    0.96825;
	130	 1	 0.0	 0.0	 0.0	 0.0	 1	    1.07174	   -7.10452	 225.0	 1	    1.08444	    1.00889;
	131	 1	 110.7	 4.4	 0.0	 0.0	 1	    1.07584	  -14.45894	 225.0	 1	    1.08444	    1.00889;
	132	 2	 9.4	 0.0	 0.0	 0.0	 1	    1.07778	   -4.88230	 90.0	 1	    1.07778	    0.92222;
	133	 1	 2.5	 -0.1	 0.0	 0.0	 1	    1.00116	  -34.50488	 63.0	 1	    1.04762	    0.95238;
	134	 1	 101.1	 28.6	 0.0	 0.0	 1	    1.04762	  -31.42881	 225.0	 1	    1.08889	    1.00444;
	135	 1	 0.0	 0.0	 0.0	 0.0	 1	    1.09068	  -32.24428	 225.0	 1	    1.09072	    1.00444;
	136	 1	 23.7	 0.6	 0.0	 0.0	 1	    1.05641	  -38.15739	 90.0	 1	    1.07778	    0.97778;
	137	 2	 8.1	 -3.8	 0.0	 0.0	 1	    1.03602	  -17.51413	 63.0	 1	    1.06349	    0.96825;
	138	 1	 0.0	 0.0	 0.0	 0.0	 1	    1.05678	  -18.37780	 150.0	 1	    1.08000	    0.96667;
	139	 1	 15.7	 4.1	 0.0	 0.0	 1	    1.06394	   -9.16250	 63.0	 1	    1.07937	    0.92063;
	140	 1	 0.0	 0.0	 0.0	 80.0	 1	    1.08889	   -5.65368	 225.0	 1	    1.08889	    1.00000;
	141	 1	 0.0	 0.0	 0.0	 0.0	 1	    1.09614	   -2.55077	 380.0	 1	    1.10526	    1.05263;
	142	 1	 12.5	 1.1	 0.0	 0.0	 1	    1.01681	  -30.07274	 63.0	 1	    1.07937	    0.95238;
	143	 1	 0.0	 0.0	 0.0	 0.0	 1	    1.03226	  -25.74220	 225.0	 1	    1.08889	    0.98667;
	144	 1	 8.9	 2.5	 0.0	 0.0	 1	    1.07021	  -25.39817	 90.0	 1	    1.11111	    0.95556;
	145	 1	 24.0	 7.7	 0.0	 0.0	 1	    1.08339	  -21.97212	 225.0	 1	    1.08889	    0.96889;
	146	 1	 0.0	 0.0	 0.0	 0.0	 1	    1.09168	  -18.89915	 380.0	 1	    1.10526	    1.00000;
	147	 1	 28.0	 4.6	 0.0	 0.0	 1	    1.03684	  -32.27168	 63.0	 1	    1.06349	    0.93651;
	148	 1	 6.6	 1.5	 0.0	 0.0	 1	    1.04174	  -21.98771	 63.0	 1	    1.06349	    0.93651;
	149	 1	 15.9	 4.2	 0.0	 0.0	 1	    1.04673	  -32.65120	 90.0	 1	    1.06667	    0.97778;
	150	 1	 48.4	 1.0	 0.0	 0.0	 1	    1.05494	  -29.74153	 63.0	 1	    1.06349	    0.93651;
	151	 1	 0.0	 0.0	 0.0	 0.0	 1	    1.01135	  -21.17109	 63.0	 1	    1.06349	    0.96825;
	152	 1	 42.6	 9.4	 0.0	 7.7	 1	    1.01129	  -19.91823	 63.0	 1	    1.06349	    0.96825;
	153	 1	 26.9	 -4.9	 0.0	 0.0	 1	    1.04060	  -28.88428	 63.0	 1	    1.06349	    0.93651;
	154	 1	 0.0	 0.0	 0.0	 0.0	 1	    1.06185	  -24.72660	 225.0	 1	    1.08889	    0.93333;
	155	 2	 0.0	 0.0	 0.0	 0.0	 1	    1.01924	   -7.29719	 63.0	 1	    1.07937	    0.92063;
	156	 1	 0.0	 0.0	 0.0	 0.0	 1	    1.01131	  -21.17645	 63.0	 1	    1.06349	    0.96825;
	157	 1	 -1.4	 -2.3	 0.0	 0.0	 1	    0.93284	  -30.14990	 45.0	 1	    1.00000	    0.88889;
	158	 2	 0.0	 0.0	 0.0	 0.0	 1	    0.98662	  -28.92318	 45.0	 1	    1.00000	    0.88889;
	159	 1	 0.0	 0.0	 0.0	 0.0	 1	    1.04314	  -32.38973	 63.0	 1	    1.06349	    0.93651;
	160	 1	 39.6	 5.7	 0.0	 0.0	 1	    1.07007	  -21.68524	 225.0	 1	    1.08889	    0.88889;
	161	 1	 40.6	 10.8	 0.0	 0.0	 1	    1.06986	  -21.68650	 225.0	 1	    1.08889	    0.88889;
	162	 1	 -0.1	 -1.2	 0.0	 0.0	 1	    1.04127	  -21.84180	 90.0	 1	    1.06667	    0.97778;
	163	 1	 0.0	 0.0	 0.0	 0.0	 1	    1.01587	  -26.10514	 63.0	 1	    1.07937	    0.95238;
	164	 1	 0.0	 0.0	 0.0	 0.0	 1	    1.01587	  -26.10514	 63.0	 1	    1.07937	    0.95238;
	165	 1	 12.5	 6.7	 0.0	 0.0	 1	    1.07816	  -28.26232	 20.0	 1	    1.15000	    0.80000;
	166	 1	 8.1	 -0.3	 0.0	 0.0	 1	    1.04660	  -32.25335	 90.0	 1	    1.06667	    0.97778;
	167	 1	 8.3	 -2.0	 0.0	 0.0	 1	    1.04419	  -32.74645	 90.0	 1	    1.06667	    0.97778;
	168	 1	 0.0	 0.0	 0.0	 0.0	 1	    1.07822	  -28.25743	 225.0	 1	    1.08444	    1.00444;
	169	 1	 9.1	 -0.5	 0.0	 0.0	 1	    1.04087	  -25.51053	 90.0	 1	    1.06667	    0.97778;
	170	 1	 78.8	 13.1	 0.0	 0.0	 1	    1.06073	  -32.62615	 90.0	 1	    1.07778	    0.97778;
	171	 1	 26.3	 -0.9	 0.0	 30.0	 1	    1.07277	  -35.45348	 90.0	 1	    1.07921	    0.97778;
	172	 1	 0.0	 0.0	 0.0	 0.0	 1	    1.08209	  -31.39086	 225.0	 1	    1.08889	    1.00444;
	173	 1	 28.9	 8.2	 0.0	 0.0	 1	    1.08317	  -24.14005	 90.0	 1	    1.08889	    0.93333;
	174	 1	 54.8	 9.7	 0.0	 0.0	 1	    1.08790	  -27.73316	 90.0	 1	    1.11111	    0.95556;
	175	 1	 0.0	 0.0	 0.0	 0.0	 1	    1.01439	   -9.87385	 63.0	 1	    1.07937	    0.92063;
	176	 2	 0.0	 0.0	 0.0	 0.0	 1	    1.07365	   -6.01290	 150.0	 1	    1.10000	    0.90000;
	177	 1	 0.0	 0.0	 0.0	 0.0	 1	    1.07049	  -30.16044	 225.0	 1	    1.08889	    1.00444;
	178	 1	 0.0	 0.0	 0.0	 0.0	 1	    1.07049	  -30.16045	 225.0	 1	    1.08889	    1.00444;
	179	 1	 0.0	 0.0	 0.0	 0.0	 1	    1.01662	  -33.37348	 63.0	 1	    1.04762	    0.95238;
	180	 1	 0.0	 0.0	 0.0	 0.0	 1	    1.07049	  -30.16044	 225.0	 1	    1.08889	    1.00444;
	181	 1	 14.2	 -5.0	 0.0	 0.0	 1	    1.05704	  -17.57674	 63.0	 1	    1.07937	    0.92063;
	182	 1	 15.0	 4.1	 0.0	 0.0	 1	    1.02452	  -17.73213	 63.0	 1	    1.06349	    0.93651;
	183	 1	 6.2	 -0.7	 0.0	 0.0	 1	    1.03228	  -29.65924	 63.0	 1	    1.07937	    0.95238;
	184	 1	 4.0	 1.4	 0.0	 0.0	 1	    1.07147	  -25.39732	 90.0	 1	    1.07778	    0.97778;
	185	 1	 28.1	 2.7	 0.0	 0.0	 1	    1.00898	  -30.87953	 63.0	 1	    1.07937	    0.95238;
	186	 1	 0.4	 1.3	 0.0	 0.0	 1	    1.04252	  -21.24190	 90.0	 1	    1.06667	    0.97778;
	187	 2	 0.0	 0.0	 0.0	 0.0	 1	    1.03591	   -9.93294	 63.0	 1	    1.07937	    0.92063;
	188	 1	 0.0	 0.0	 0.0	 0.0	 1	    1.08461	   -8.15275	 63.0	 1	    1.10211	    0.92063;
	189	 1	 16.4	 2.1	 0.0	 0.0	 1	    1.03020	  -13.82776	 63.0	 1	    1.07937	    0.92063;
	190	 2	 0.0	 0.0	 0.0	 0.0	 1	    0.96458	  -27.67651	 45.0	 1	    1.00000	    0.88889;
	191	 1	 14.3	 -1.2	 0.0	 0.0	 1	    1.04199	  -25.44119	 90.0	 1	    1.06667	    0.97778;
	192	 1	 7.2	 -2.0	 0.0	 0.0	 1	    1.06126	   -7.33819	 63.0	 1	    1.07937	    0.92063;
	193	 1	 -0.3	 0.8	 0.0	 0.0	 1	    1.06934	  -27.69874	 225.0	 1	    1.08889	    1.00444;
	194	 2	 0.7	 -2.2	 0.0	 0.0	 1	    1.06642	  -14.01628	 63.0	 1	    1.07937	    0.92063;
	195	 1	 0.0	 0.0	 0.0	 0.0	 1	    1.07435	  -31.51678	 63.0	 1	    1.07545	    0.95238;
	196	 1	 0.0	 0.0	 0.0	 0.0	 1	    1.07435	  -31.51682	 63.0	 1	    1.07546	    0.95238;
	197	 1	 27.3	 0.8	 0.0	 15.0	 1	    1.03859	  -22.27579	 63.0	 1	    1.07937	    0.92063;
	198	 1	 10.0	 -0.7	 0.0	 0.0	 1	    1.02580	  -13.10365	 63.0	 1	    1.07937	    0.92063;
	199	 1	 11.4	 1.5	 0.0	 0.0	 1	    1.02787	  -38.54158	 90.0	 1	    1.06667	    0.97778;
	200	 1	 0.0	 0.0	 0.0	 0.0	 1	    1.06532	  -10.01311	 225.0	 1	    1.08889	    1.00000;
	201	 1	 62.6	 22.9	 0.0	 0.0	 1	    1.05759	  -23.15214	 225.0	 1	    1.08889	    0.88889;
	202	 1	 48.1	 0.6	 0.0	 0.0	 1	    1.02184	  -25.09531	 63.0	 1	    1.06349	    0.96825;
	203	 1	 23.4	 3.7	 0.0	 0.0	 1	    1.07775	  -21.86031	 90.0	 1	    1.10000	    0.94444;
	204	 1	 0.0	 0.0	 0.0	 0.0	 1	    1.08260	  -18.62158	 225.0	 1	    1.08889	    0.96889;
	205	 1	 0.0	 0.0	 0.0	 0.0	 1	    1.09637	  -15.20931	 380.0	 1	    1.10526	    1.00000;
	206	 1	 50.6	 6.4	 0.0	 0.0	 1	    1.03798	  -23.00753	 63.0	 1	    1.06349	    0.96825;
	207	 1	 32.8	 5.0	 0.0	 0.0	 1	    1.01938	   -9.12318	 63.0	 1	    1.06349	    0.96825;
	208	 1	 18.0	 -0.4	 0.0	 0.0	 1	    1.04750	  -27.05622	 90.0	 1	    1.07778	    0.97778;
	209	 1	 0.6	 1.4	 0.0	 0.0	 1	    1.04614	  -16.30121	 63.0	 1	    1.06349	    0.96825;
	210	 1	 41.1	 6.8	 0.0	 0.0	 1	    1.02289	  -13.05328	 63.0	 1	    1.06349	    0.96825;
	211	 1	 28.1	 13.4	 0.0	 0.0	 1	    1.02293	  -12.90841	 63.0	 1	    1.06349	    0.96825;
	212	 1	 0.0	 0.0	 0.0	 0.0	 1	    1.06860	  -12.85857	 225.0	 1	    1.08444	    1.00889;
	213	 1	 0.0	 0.0	 0.0	 0.0	 1	    1.06854	  -12.84242	 225.0	 1	    1.08444	    1.00889;
	214	 1	 40.9	 3.5	 0.0	 30.4	 1	    1.06617	  -34.83636	 90.0	 1	    1.07778	    0.97778;
	215	 1	 0.0	 0.0	 0.0	 0.0	 1	    1.07541	  -31.17121	 225.0	 1	    1.08889	    1.00444;
	216	 1	 20.6	 -4.0	 0.0	 0.0	 1	    1.01595	  -19.71203	 63.0	 1	    1.06349	    0.95238;
	217	 1	 26.6	 2.7	 0.0	 0.0	 1	    1.02797	  -27.62282	 90.0	 1	    1.06667	    0.97778;
	218	 1	 -0.6	 1.1	 0.0	 0.0	 1	    1.04723	  -16.94307	 90.0	 1	    1.06667	    0.97778;
	219	 1	 12.0	 -3.2	 0.0	 0.0	 1	    1.06100	  -23.32042	 90.0	 1	    1.06812	    0.97778;
	220	 1	 12.7	 1.4	 0.0	 0.0	 1	    1.02924	  -18.69145	 63.0	 1	    1.07937	    0.95238;
	221	 1	 8.6	 -3.8	 0.0	 0.0	 1	    1.04562	  -12.85998	 63.0	 1	    1.06349	    0.93651;
	222	 1	 0.0	 0.0	 0.0	 0.0	 1	    1.09119	   -8.96814	 225.0	 1	    1.09432	    0.93333;
	223	 1	 41.4	 -0.1	 0.0	 0.0	 1	    1.02408	  -17.00304	 63.0	 1	    1.07937	    0.92063;
	224	 2	 0.0	 0.0	 0.0	 0.0	 1	    1.07360	   -6.01193	 150.0	 1	    1.10000	    0.90000;
	225	 1	 66.8	 4.8	 0.0	 0.0	 1	    1.07869	  -12.23969	 225.0	 1	    1.08444	    1.00889;
	226	 1	 66.8	 43.8	 0.0	 0.0	 1	    1.07808	  -12.23365	 225.0	 1	    1.08444	    1.00889;
	227	 1	 5.0	 -1.8	 0.0	 0.0	 1	    1.02933	  -53.38673	 63.0	 1	    1.06349	    0.95238;
	228	 1	 10.9	 -2.0	 0.0	 0.0	 1	    1.02550	  -53.90964	 63.0	 1	    1.06349	    0.95238;
	229	 1	 10.5	 -3.1	 0.0	 0.0	 1	    1.05998	  -13.24283	 63.0	 1	    1.07937	    0.92063;
	230	 1	 0.0	 0.0	 0.0	 0.0	 1	    1.08033	  -12.54825	 225.0	 1	    1.08889	    0.97778;
	231	 1	 7.0	 -1.4	 0.0	 0.0	 1	    1.04605	  -24.40570	 90.0	 1	    1.06667	    0.97778;
	232	 1	 5.1	 0.9	 0.0	 0.0	 1	    1.06255	  -14.80561	 90.0	 1	    1.08889	    0.93333;
	233	 1	 0.0	 0.0	 0.0	 0.0	 1	    1.04517	  -23.25171	 20.0	 1	    1.15000	    0.80000;
	234	 1	 23.0	 7.1	 0.0	 0.0	 1	    1.04517	  -23.25171	 90.0	 1	    1.08889	    0.93333;
	235	 1	 14.9	 2.2	 0.0	 0.0	 1	    1.05970	  -19.86323	 225.0	 1	    1.08889	    0.88889;
	236	 1	 23.8	 1.3	 0.0	 0.0	 1	    1.06935	  -27.23133	 90.0	 1	    1.07778	    0.92222;
	237	 1	 40.5	 3.2	 0.0	 0.0	 1	    1.05364	  -31.25342	 63.0	 1	    1.06349	    0.93651;
	238	 1	 25.0	 -2.5	 0.0	 0.0	 1	    1.05067	  -26.49063	 90.0	 1	    1.06667	    0.97778;
	239	 1	 52.1	 2.0	 0.0	 0.0	 1	    1.03039	  -55.31066	 63.0	 1	    1.06349	    0.95238;
	240	 1	 46.6	 6.6	 0.0	 0.0	 1	    1.02656	  -16.12286	 63.0	 1	    1.07937	    0.92063;
	241	 1	 52.9	 7.4	 0.0	 0.0	 1	    1.02690	  -17.10775	 90.0	 1	    1.07778	    0.92222;
	242	 1	 56.3	 9.3	 0.0	 0.0	 1	    1.02787	  -22.48207	 63.0	 1	    1.06349	    0.96825;
	243	 1	 27.7	 -3.4	 0.0	 0.0	 1	    1.02627	  -19.74045	 63.0	 1	    1.07937	    0.92063;
	244	 1	 52.3	 2.2	 0.0	 0.0	 1	    1.05517	   -6.91497	 90.0	 1	    1.07778	    0.92222;
	245	 1	 13.7	 -2.2	 0.0	 0.0	 1	    1.02140	  -20.99366	 63.0	 1	    1.07937	    0.92063;
	246	 2	 10.5	 3.9	 0.0	 0.0	 1	    1.02631	  -25.98053	 63.0	 1	    1.06349	    0.93651;
	247	 1	 0.0	 0.0	 0.0	 0.0	 1	    1.05959	  -24.72319	 225.0	 1	    1.08889	    0.93333;
	248	 1	 32.4	 13.6	 0.0	 0.0	 1	    1.07879	  -30.46616	 225.0	 1	    1.08889	    1.00444;
	249	 1	 22.8	 -2.7	 0.0	 0.0	 1	    1.04505	  -19.73122	 63.0	 1	    1.07937	    0.92063;
	250	 1	 26.2	 -8.1	 0.0	 0.0	 1	    1.01818	  -32.98203	 63.0	 1	    1.07937	    0.95238;
	251	 1	 11.3	 1.7	 0.0	 0.0	 1	    1.03893	  -31.67239	 90.0	 1	    1.06667	    0.97778;
	252	 1	 10.1	 -2.2	 0.0	 0.0	 1	    1.04198	  -21.99531	 90.0	 1	    1.06667	    0.97778;
	253	 1	 50.7	 3.9	 0.0	 0.0	 1	    1.04077	  -27.44219	 63.0	 1	    1.07937	    0.95238;
	254	 1	 17.8	 3.6	 0.0	 0.0	 1	    1.03118	  -32.46690	 63.0	 1	    1.07937	    0.95238;
	255	 1	 10.5	 2.1	 0.0	 0.0	 1	    1.03501	  -16.27381	 63.0	 1	    1.06349	    0.93651;
	256	 2	 2.8	 0.0	 0.0	 0.0	 1	    1.05051	   -8.20217	 63.0	 1	    1.07937	    0.92063;
	257	 1	 0.0	 0.0	 0.0	 0.0	 1	    1.06804	  -10.22749	 225.0	 1	    1.08889	    1.00000;
	258	 2	 -0.0	 0.0	 0.0	 0.0	 1	    1.07924	   -3.16756	 90.0	 1	    1.07924	    0.92222;
	259	 1	 32.3	 3.1	 0.0	 0.0	 1	    1.06040	  -24.17850	 63.0	 1	    1.07937	    0.95238;
	260	 1	 0.0	 0.0	 0.0	 0.0	 1	    1.07571	  -22.00063	 225.0	 1	    1.08889	    0.98667;
	261	 2	 0.0	 0.0	 0.0	 0.0	 1	    1.03864	  -16.78441	 63.0	 1	    1.07937	    0.92063;
	262	 1	 0.0	 0.0	 0.0	 80.0	 1	    1.07419	  -21.28988	 225.0	 1	    1.08889	    0.88889;
	263	 1	 0.0	 0.0	 0.0	 0.0	 1	    1.06448	  -22.25778	 225.0	 1	    1.08889	    0.88889;
	264	 1	 0.0	 0.0	 0.0	 0.0	 1	    1.07817	  -18.04640	 380.0	 1	    1.10526	    1.01316;
	265	 1	 0.0	 0.0	 0.0	 0.0	 1	    1.01474	  -32.64812	 63.0	 1	    1.04762	    0.95238;
	266	 1	 29.7	 8.4	 0.0	 0.0	 1	    1.08057	  -29.96570	 225.0	 1	    1.08889	    1.00444;
	267	 1	 65.5	 9.9	 0.0	 0.0	 1	    1.06273	  -30.95393	 225.0	 1	    1.08889	    1.00444;
	268	 1	 13.2	 13.1	 0.0	 0.0	 1	    1.01094	  -13.30156	 63.0	 1	    1.07937	    0.92063;
	269	 1	 24.5	 1.6	 0.0	 0.0	 1	    1.01063	  -19.83481	 63.0	 1	    1.07937	    0.92063;
	270	 1	 0.0	 0.0	 0.0	 0.0	 1	    1.06816	   -8.31764	 225.0	 1	    1.08889	    0.97778;
	271	 1	 0.0	 0.0	 0.0	 0.0	 1	    1.06815	   -8.31817	 225.0	 1	    1.08889	    0.97778;
	272	 1	 44.2	 6.9	 0.0	 0.0	 1	    1.04886	  -13.21113	 63.0	 1	    1.06349	    0.96825;
	273	 1	 29.5	 5.0	 0.0	 0.0	 1	    1.06542	   -9.10337	 225.0	 1	    1.08444	    1.00889;
	274	 1	 53.3	 7.5	 0.0	 0.0	 1	    1.08865	  -27.62598	 90.0	 1	    1.10000	    0.94444;
	275	 1	 0.0	 0.0	 0.0	 0.0	 1	    1.07785	  -23.30420	 225.0	 1	    1.08444	    1.00444;
	276	 1	 0.0	 0.0	 0.0	 0.0	 1	    1.08332	  -17.58269	 380.0	 1	    1.10263	    1.04211;
	277	 1	 1.8	 3.0	 0.0	 0.0	 1	    1.04651	  -26.09660	 90.0	 1	    1.06667	    0.97778;
	278	 1	 -1.7	 4.6	 0.0	 0.0	 1	    1.07765	  -23.36115	 225.0	 1	    1.08444	    1.00444;
	279	 1	 12.0	 -1.1	 0.0	 0.0	 1	    1.01772	  -42.23349	 63.0	 1	    1.06349	    0.93651;
	280	 1	 48.8	 7.7	 0.0	 0.0	 1	    1.06031	  -33.17704	 90.0	 1	    1.07778	    0.97778;
	281	 1	 11.8	 -0.0	 0.0	 0.0	 1	    1.03746	  -25.26261	 63.0	 1	    1.07937	    0.95238;
	282	 2	 0.0	 0.0	 0.0	 0.0	 1	    1.02631	  -25.98054	 63.0	 1	    1.06349	    0.93651;
	283	 1	 10.8	 -1.0	 0.0	 0.0	 1	    1.03936	  -33.14979	 90.0	 1	    1.06667	    0.97778;
	284	 1	 16.1	 3.1	 0.0	 0.0	 1	    1.02185	  -17.67037	 63.0	 1	    1.07937	    0.95238;
	285	 1	 0.3	 5.7	 0.0	 0.0	 1	    1.08092	  -30.03745	 225.0	 1	    1.08889	    1.00444;
	286	 1	 31.3	 25.5	 0.0	 0.0	 1	    1.08071	  -30.05104	 225.0	 1	    1.08889	    1.00444;
	287	 1	 27.8	 -2.0	 0.0	 0.0	 1	    1.05028	  -23.90757	 90.0	 1	    1.06667	    0.97778;
	288	 1	 34.7	 -1.1	 0.0	 0.0	 1	    1.04518	  -26.57934	 90.0	 1	    1.06667	    0.97778;
	289	 1	 27.3	 -6.6	 0.0	 0.0	 1	    1.08115	  -15.11063	 225.0	 1	    1.08985	    0.88889;
	290	 1	 3.4	 3.9	 0.0	 0.0	 1	    1.08341	  -22.83408	 90.0	 1	    1.11111	    0.95556;
	291	 1	 14.3	 -1.9	 0.0	 0.0	 1	    1.03196	  -17.89638	 63.0	 1	    1.07937	    0.92063;
	292	 1	 0.0	 0.5	 0.0	 0.0	 1	    1.03572	  -23.13471	 63.0	 1	    1.06349	    0.93651;
	293	 1	 43.0	 -1.7	 0.0	 0.0	 1	    1.03574	  -23.13526	 63.0	 1	    1.06349	    0.93651;
	294	 1	 0.0	 -0.9	 0.0	 0.0	 1	    1.01274	  -30.49791	 63.0	 1	    1.07937	    0.95238;
	295	 1	 21.3	 4.3	 0.0	 0.0	 1	    1.06948	  -22.91696	 225.0	 1	    1.08889	    0.88889;
	296	 1	 8.0	 -0.6	 0.0	 0.0	 1	    1.03416	  -25.48478	 63.0	 1	    1.07937	    0.95238;
	297	 1	 1.0	 -1.0	 0.0	 0.0	 1	    1.01007	  -23.81596	 63.0	 1	    1.06349	    0.93651;
	298	 1	 13.0	 0.0	 0.0	 0.0	 1	    1.03096	  -13.11047	 63.0	 1	    1.06349	    0.93651;
	299	 1	 0.0	 0.1	 0.0	 0.0	 1	    1.07618	  -20.09300	 90.0	 1	    1.11111	    0.95556;
	300	 1	 54.4	 17.4	 0.0	 0.0	 1	    1.07876	  -17.55335	 225.0	 1	    1.08889	    0.88889;
	301	 1	 3.3	 0.1	 0.0	 0.0	 1	    1.02025	  -10.05876	 63.0	 1	    1.06349	    0.96825;
	302	 1	 16.3	 3.7	 0.0	 0.0	 1	    1.01017	  -20.34657	 63.0	 1	    1.06349	    0.93651;
	303	 1	 41.9	 10.9	 0.0	 0.0	 1	    1.01041	  -24.99993	 63.0	 1	    1.07937	    0.92063;
	304	 1	 35.5	 -0.5	 0.0	 0.0	 1	    1.03097	  -20.54694	 63.0	 1	    1.06349	    0.96825;
	305	 2	 0.0	 0.0	 0.0	 0.0	 1	    1.05905	  -15.60627	 63.0	 1	    1.07088	    0.93651;
	306	 1	 13.9	 -1.5	 0.0	 0.0	 1	    1.03219	  -25.88167	 63.0	 1	    1.07937	    0.95238;
	307	 1	 19.2	 -2.8	 0.0	 0.0	 1	    1.02022	  -39.18244	 90.0	 1	    1.06667	    0.97778;
	308	 1	 0.6	 0.2	 0.0	 0.0	 1	    1.03317	  -13.82540	 63.0	 1	    1.07937	    0.92063;
	309	 1	 7.0	 2.5	 0.0	 0.0	 1	    1.05655	  -26.81857	 63.0	 1	    1.06349	    0.96825;
	310	 1	 12.0	 3.5	 0.0	 0.0	 1	    1.05681	  -26.84259	 63.0	 1	    1.06349	    0.96825;
	311	 1	 1.5	 -0.0	 0.0	 0.0	 1	    1.01205	  -25.64586	 90.0	 1	    1.06667	    0.97778;
	312	 1	 -2.5	 -0.8	 0.0	 0.0	 1	    1.03270	  -17.04204	 90.0	 1	    1.07778	    0.92222;
	313	 1	 30.7	 3.2	 0.0	 0.0	 1	    1.04287	  -16.45451	 63.0	 1	    1.07937	    0.92063;
	314	 1	 0.0	 0.0	 0.0	 0.0	 1	    1.07007	  -12.65016	 225.0	 1	    1.08889	    1.00000;
	315	 1	 20.8	 -1.1	 0.0	 0.0	 1	    1.07062	  -25.58013	 90.0	 1	    1.07778	    0.97778;
	316	 1	 28.6	 7.2	 0.0	 0.0	 1	    1.03192	  -16.25317	 63.0	 1	    1.07937	    0.92063;
	317	 2	 0.0	 0.0	 0.0	 0.0	 1	    1.05785	   -9.12795	 63.0	 1	    1.07937	    0.92063;
	318	 1	 13.3	 4.1	 0.0	 0.0	 1	    1.03707	  -32.78264	 63.0	 1	    1.04762	    0.95238;
	319	 2	 0.0	 0.0	 0.0	 0.0	 1	    1.04803	  -18.72765	 63.0	 1	    1.07937	    0.92063;
	320	 1	 35.0	 4.3	 0.0	 0.0	 1	    1.07581	  -25.47381	 90.0	 1	    1.10000	    0.94444;
	321	 1	 0.0	 0.0	 0.0	 0.0	 1	    1.06920	  -15.40538	 63.0	 1	    1.07937	    0.92063;
	322	 1	 0.0	 0.0	 0.0	 0.0	 1	    1.04991	   -7.71081	 225.0	 1	    1.08889	    1.00000;
	323	 1	 0.0	 0.0	 0.0	 0.0	 1	    1.08884	   -7.55736	 380.0	 1	    1.10526	    1.05263;
	324	 1	 26.4	 4.7	 0.0	 0.0	 1	    1.04524	  -15.34517	 63.0	 1	    1.06349	    0.93651;
	325	 2	 18.6	 10.7	 0.0	 0.0	 1	    1.01696	  -22.04205	 63.0	 1	    1.06349	    0.93651;