%%%%%%%%%%%%%%%%%%%%%%%%%%%%%%%%%%%%%%%%%%%%%%%%%%%%%%%%%%%%%%%%%%%%%%%%%%%
%%%%                                                                  %%%%%
%%%%    IEEE PES Power Grid Library - Optimal Power Flow - v17.07     %%%%%
%%%%          (https://github.com/power-grid-lib/pglib-opf)           %%%%%
%%%%             Benchmark Group - Small Angle Difference             %%%%%
%%%%                         27 - June - 2017                         %%%%%
%%%%                                                                  %%%%%
%%%%%%%%%%%%%%%%%%%%%%%%%%%%%%%%%%%%%%%%%%%%%%%%%%%%%%%%%%%%%%%%%%%%%%%%%%%
function mpc = pglib_opf_case2746wop_mp__sad
mpc.version = '2';
mpc.baseMVA = 100.0;

%% area data
%	area	refbus
mpc.areas = [
	1	 18;
];

%% bus data
%	bus_i	type	Pd	Qd	Gs	Bs	area	Vm	Va	baseKV	zone	Vmax	Vmin
mpc.bus = [
	1	 1	 0.0	 0.0	 0.0	 0.0	 1	    1.10104	   -0.22404	 220.0	 1	    1.11000	    0.95000;
	2	 1	 0.0	 0.0	 0.0	 0.0	 1	    1.10422	    2.91725	 220.0	 1	    1.11000	    0.95000;
	3	 1	 0.0	 0.0	 0.0	 0.0	 1	    1.07740	   -9.88950	 220.0	 1	    1.11000	    0.95000;
	4	 1	 0.0	 0.0	 0.0	 0.0	 1	    1.10185	   -1.75191	 220.0	 1	    1.11000	    0.95000;
	5	 1	 0.0	 0.0	 0.0	 0.0	 1	    1.10187	   -1.75700	 220.0	 1	    1.11000	    0.95000;
	6	 1	 0.0	 0.0	 0.0	 0.0	 1	    1.08126	   -6.76709	 220.0	 1	    1.11000	    0.95000;
	7	 1	 0.0	 0.0	 0.0	 0.0	 1	    1.08130	   -6.76283	 220.0	 1	    1.11000	    0.95000;
	8	 1	 0.0	 0.0	 0.0	 -50.0	 1	    1.03266	   -5.26705	 400.0	 1	    1.05000	    0.95000;
	9	 1	 0.0	 0.0	 0.0	 0.0	 1	    1.03265	   -5.26712	 400.0	 1	    1.05000	    0.95000;
	10	 1	 0.0	 0.0	 0.0	 0.0	 1	    1.07832	   -6.90471	 220.0	 1	    1.11000	    0.95000;
	11	 1	 0.0	 0.0	 0.0	 0.0	 1	    1.07823	   -6.91281	 220.0	 1	    1.11000	    0.95000;
	12	 1	 0.0	 0.0	 0.0	 0.0	 1	    1.07823	   -6.90071	 220.0	 1	    1.11000	    0.95000;
	13	 1	 0.0	 0.0	 0.0	 -50.0	 1	    1.02976	   -4.61457	 400.0	 1	    1.05000	    0.95000;
	14	 1	 0.0	 0.0	 0.0	 0.0	 1	    1.02985	   -4.61049	 400.0	 1	    1.05000	    0.95000;
	15	 1	 0.0	 0.0	 0.0	 0.0	 1	    1.04160	   -5.90002	 400.0	 1	    1.05000	    0.95000;
	16	 1	 0.0	 0.0	 0.0	 0.0	 1	    1.04160	   -5.90002	 400.0	 1	    1.05000	    0.95000;
	17	 2	 2.302	 31.0	 0.0	 0.0	 1	    1.10985	   -5.66072	 220.0	 1	    1.11000	    0.95000;
	18	 2	 9.7	 40.0	 0.0	 0.0	 1	    1.11000	   -5.66005	 220.0	 1	    1.11000	    0.95000;
	19	 1	 0.0	 0.0	 0.0	 0.0	 1	    1.10327	   -1.17358	 220.0	 1	    1.11000	    0.95000;
	20	 1	 0.0	 0.0	 0.0	 0.0	 1	    1.10327	   -1.16696	 220.0	 1	    1.11000	    0.95000;
	21	 1	 0.0	 0.0	 0.0	 0.0	 1	    1.09015	   -8.16655	 220.0	 1	    1.11000	    0.95000;
	22	 1	 0.0	 0.0	 0.0	 0.0	 1	    1.09015	   -8.16655	 220.0	 1	    1.11000	    0.95000;
	23	 1	 0.0	 0.0	 0.0	 0.0	 1	    1.07838	   -6.68822	 220.0	 1	    1.11000	    0.95000;
	24	 1	 0.0	 0.0	 0.0	 0.0	 1	    1.10294	    0.23022	 220.0	 1	    1.11000	    0.95000;
	25	 1	 0.0	 0.0	 0.0	 -50.0	 1	    1.02095	   -8.59177	 400.0	 1	    1.05000	    0.95000;
	26	 2	 28.565	 42.054	 0.0	 0.0	 1	    1.11000	   -0.03798	 220.0	 1	    1.11000	    0.95000;
	27	 2	 85.005	 122.06	 0.0	 0.0	 1	    1.11000	    3.20078	 220.0	 1	    1.11000	    0.95000;
	28	 3	 44.783	 80.0	 0.0	 0.0	 1	    1.05000	   -0.00000	 400.0	 1	    1.05000	    0.95000;
	29	 2	 60.097	 90.0	 0.0	 0.0	 1	    1.04998	    0.00700	 400.0	 1	    1.05000	    0.95000;
	30	 1	 0.0	 0.0	 0.0	 0.0	 1	    1.08020	   -7.88811	 220.0	 1	    1.11000	    0.95000;
	31	 1	 0.0	 0.0	 0.0	 0.0	 1	    1.05000	   -1.23307	 400.0	 1	    1.05000	    0.95000;
	32	 1	 0.0	 0.0	 0.0	 0.0	 1	    1.07693	   -7.06066	 220.0	 1	    1.11000	    0.95000;
	33	 1	 0.0	 0.0	 0.0	 0.0	 1	    1.10294	    0.23112	 220.0	 1	    1.11000	    0.95000;
	34	 1	 0.0	 0.0	 0.0	 0.0	 1	    1.10413	   -3.31428	 220.0	 1	    1.11000	    0.95000;
	35	 1	 0.0	 0.0	 0.0	 0.0	 1	    1.08983	   -5.18319	 220.0	 2	    1.11000	    0.95000;
	36	 1	 0.0	 0.0	 0.0	 0.0	 1	    1.07925	   -8.04129	 220.0	 2	    1.11000	    0.95000;
	37	 1	 0.0	 0.0	 0.0	 0.0	 1	    1.08878	   -6.97980	 220.0	 2	    1.11000	    0.95000;
	38	 1	 0.0	 0.0	 0.0	 0.0	 1	    1.08876	   -6.98450	 220.0	 2	    1.11000	    0.95000;
	39	 1	 0.0	 0.0	 0.0	 0.0	 1	    1.07754	   -6.27767	 220.0	 2	    1.11000	    0.95000;
	40	 1	 0.0	 0.0	 0.0	 0.0	 1	    1.11000	   -6.77205	 220.0	 2	    1.11000	    0.95000;
	41	 1	 0.0	 0.0	 0.0	 0.0	 1	    1.10992	   -6.78172	 220.0	 2	    1.11000	    0.95000;
	42	 1	 0.0	 0.0	 0.0	 0.0	 1	    1.02604	   -6.64000	 400.0	 2	    1.05000	    0.95000;
	43	 2	 12.0	 0.0	 0.0	 0.0	 1	    1.10083	   -2.14495	 220.0	 2	    1.11000	    0.95000;
	44	 2	 24.0	 0.0	 0.0	 0.0	 1	    1.10080	   -2.12058	 220.0	 2	    1.11000	    0.95000;
	45	 2	 20.0	 0.0	 0.0	 0.0	 1	    1.03472	   -3.05352	 400.0	 2	    1.05000	    0.95000;
	46	 1	 0.0	 0.0	 0.0	 0.0	 1	    1.03470	   -3.05260	 400.0	 2	    1.05000	    0.95000;
	47	 1	 0.0	 0.0	 0.0	 0.0	 1	    1.10865	   -7.14376	 220.0	 2	    1.11000	    0.95000;
	48	 1	 0.0	 0.0	 0.0	 0.0	 1	    1.02758	  -10.39913	 400.0	 2	    1.05000	    0.95000;
	49	 1	 0.0	 0.0	 0.0	 0.0	 1	    1.02755	  -10.40483	 400.0	 2	    1.05000	    0.95000;
	50	 1	 0.0	 0.0	 0.0	 0.0	 1	    1.02925	   -3.60106	 400.0	 2	    1.05000	    0.95000;
	51	 1	 0.0	 0.0	 0.0	 0.0	 1	    1.07661	   -5.49819	 220.0	 2	    1.11000	    0.95000;
	52	 1	 0.0	 0.0	 0.0	 0.0	 1	    1.07659	   -5.49483	 220.0	 2	    1.11000	    0.95000;
	53	 1	 0.0	 0.0	 0.0	 0.0	 1	    1.03664	   -5.70962	 400.0	 2	    1.05000	    0.95000;
	54	 1	 0.0	 0.0	 0.0	 0.0	 1	    1.03666	   -5.71558	 400.0	 2	    1.05000	    0.95000;
	55	 2	 12.0	 0.0	 0.0	 0.0	 1	    1.09210	   -6.52169	 220.0	 2	    1.11000	    0.95000;
	56	 2	 12.0	 0.0	 0.0	 0.0	 1	    1.09207	   -6.51881	 220.0	 2	    1.11000	    0.95000;
	57	 2	 12.0	 0.0	 0.0	 0.0	 1	    1.03933	   -6.51824	 400.0	 2	    1.05000	    0.95000;
	58	 2	 12.0	 0.0	 0.0	 0.0	 1	    1.03932	   -6.51951	 400.0	 2	    1.05000	    0.95000;
	59	 2	 170.733	 62.0	 0.0	 0.0	 1	    1.09145	   -3.78728	 220.0	 2	    1.11000	    0.95000;
	60	 1	 0.0	 0.0	 0.0	 0.0	 1	    1.09151	   -3.78458	 220.0	 2	    1.11000	    0.95000;
	61	 1	 0.0	 0.0	 0.0	 0.0	 1	    1.10371	   -7.33195	 220.0	 2	    1.11000	    0.95000;
	62	 1	 0.0	 0.0	 0.0	 0.0	 1	    1.09853	   -4.13368	 220.0	 2	    1.11000	    0.95000;
	63	 1	 0.0	 0.0	 0.0	 0.0	 1	    1.09849	   -4.12911	 220.0	 2	    1.11000	    0.95000;
	64	 1	 0.0	 0.0	 0.0	 0.0	 1	    1.03861	   -8.04411	 400.0	 2	    1.05000	    0.95000;
	65	 1	 0.0	 0.0	 0.0	 0.0	 1	    1.03856	   -8.05484	 400.0	 2	    1.05000	    0.95000;
	66	 1	 0.0	 0.0	 0.0	 0.0	 1	    1.08565	   -6.91440	 220.0	 2	    1.11000	    0.95000;
	67	 1	 0.0	 0.0	 0.0	 0.0	 1	    1.08713	   -6.76582	 220.0	 2	    1.11000	    0.95000;
	68	 1	 0.0	 0.0	 0.0	 0.0	 1	    1.07341	   -4.82419	 220.0	 2	    1.11000	    0.95000;
	69	 1	 0.0	 0.0	 0.0	 0.0	 1	    1.09874	   -4.90558	 220.0	 3	    1.11000	    0.95000;
	70	 1	 6.8	 0.0	 0.0	 0.0	 1	    1.09727	   -9.12932	 220.0	 3	    1.11000	    0.95000;
	71	 1	 11.331	 2.43	 0.0	 0.0	 1	    1.09714	   -9.13408	 220.0	 3	    1.11000	    0.95000;
	72	 1	 0.0	 0.0	 0.0	 0.0	 1	    1.09186	  -10.66011	 220.0	 3	    1.11000	    0.95000;
	73	 1	 0.0	 0.0	 0.0	 0.0	 1	    1.09189	  -10.64058	 220.0	 3	    1.11000	    0.95000;
	74	 1	 0.0	 0.0	 0.0	 0.0	 1	    1.10653	   -8.74319	 220.0	 3	    1.11000	    0.95000;
	75	 1	 0.0	 0.0	 0.0	 0.0	 1	    1.10650	   -8.74576	 220.0	 3	    1.11000	    0.95000;
	76	 1	 0.0	 0.0	 0.0	 0.0	 1	    1.09570	  -15.26892	 220.0	 3	    1.11000	    0.95000;
	77	 1	 0.0	 0.0	 0.0	 0.0	 1	    1.09566	  -15.28306	 220.0	 3	    1.11000	    0.95000;
	78	 2	 26.999	 69.999	 0.0	 0.0	 1	    1.09494	   -9.31641	 220.0	 3	    1.11000	    0.95000;
	79	 2	 8.999	 20.999	 0.0	 0.0	 1	    1.09663	   -9.79188	 220.0	 3	    1.11000	    0.95000;
	80	 1	 10.085	 1.376	 0.0	 0.0	 1	    1.09165	  -10.32494	 220.0	 3	    1.11000	    0.95000;
	81	 1	 0.0	 0.0	 0.0	 0.0	 1	    1.09164	  -10.32599	 220.0	 3	    1.11000	    0.95000;
	82	 2	 34.999	 107.999	 0.0	 0.0	 1	    1.04333	   -3.69623	 400.0	 3	    1.05000	    0.95000;
	83	 1	 0.0	 0.0	 0.0	 0.0	 1	    1.10466	   -7.00089	 220.0	 3	    1.11000	    0.95000;
	84	 1	 0.0	 0.0	 0.0	 0.0	 1	    1.10239	   -9.43316	 220.0	 3	    1.11000	    0.95000;
	85	 1	 0.0	 0.0	 0.0	 0.0	 1	    1.10235	   -9.43739	 220.0	 3	    1.11000	    0.95000;
	86	 1	 44.148	 10.561	 0.0	 0.0	 1	    1.09895	   -5.07666	 220.0	 3	    1.11000	    0.95000;
	87	 1	 0.0	 0.0	 0.0	 0.0	 1	    1.09894	   -5.08385	 220.0	 3	    1.11000	    0.95000;
	88	 1	 0.0	 0.0	 0.0	 0.0	 1	    1.09786	   -8.58398	 220.0	 3	    1.11000	    0.95000;
	89	 1	 0.0	 0.0	 0.0	 0.0	 1	    1.09781	   -8.58990	 220.0	 3	    1.11000	    0.95000;
	90	 1	 0.0	 0.0	 0.0	 0.0	 1	    1.10094	   -4.54119	 220.0	 3	    1.11000	    0.95000;
	91	 1	 0.0	 0.0	 0.0	 0.0	 1	    1.10095	   -4.53481	 220.0	 3	    1.11000	    0.95000;
	92	 1	 0.0	 0.0	 0.0	 0.0	 1	    1.05000	   -2.57387	 400.0	 3	    1.05000	    0.95000;
	93	 1	 0.0	 0.0	 0.0	 0.0	 1	    1.05000	   -2.57557	 400.0	 3	    1.05000	    0.95000;
	94	 1	 0.0	 0.0	 0.0	 0.0	 1	    1.10576	   -8.37178	 220.0	 3	    1.11000	    0.95000;
	95	 1	 0.0	 0.0	 0.0	 0.0	 1	    1.10578	   -8.37830	 220.0	 3	    1.11000	    0.95000;
	96	 1	 0.0	 0.0	 0.0	 0.0	 1	    1.10538	   -8.23053	 220.0	 3	    1.11000	    0.95000;
	97	 1	 0.0	 0.0	 0.0	 0.0	 1	    1.10538	   -8.22451	 220.0	 3	    1.11000	    0.95000;
	98	 1	 17.111	 6.317	 0.0	 0.0	 1	    1.09527	   -8.98315	 220.0	 3	    1.11000	    0.95000;
	99	 1	 0.0	 0.0	 0.0	 0.0	 1	    1.09527	   -8.97469	 220.0	 3	    1.11000	    0.95000;
	100	 1	 0.0	 0.0	 0.0	 0.0	 1	    1.09731	   -9.10853	 220.0	 3	    1.11000	    0.95000;
	101	 1	 0.0	 0.0	 0.0	 0.0	 1	    1.09730	   -9.11338	 220.0	 3	    1.11000	    0.95000;
	102	 1	 0.0	 0.0	 0.0	 0.0	 1	    1.09451	  -14.60616	 220.0	 3	    1.11000	    0.95000;
	103	 1	 0.0	 0.0	 0.0	 0.0	 1	    1.09445	  -14.59490	 220.0	 3	    1.11000	    0.95000;
	104	 2	 13.999	 39.999	 0.0	 0.0	 1	    1.10569	   -9.07367	 220.0	 3	    1.11000	    0.95000;
	105	 2	 0.0	 0.0	 0.0	 0.0	 1	    1.10572	   -9.08132	 220.0	 3	    1.11000	    0.95000;
	106	 2	 6.999	 17.999	 0.0	 0.0	 1	    1.10537	   -7.88738	 220.0	 3	    1.11000	    0.95000;
	107	 2	 7.999	 14.999	 0.0	 0.0	 1	    1.10529	   -7.88391	 220.0	 3	    1.11000	    0.95000;
	108	 1	 52.726	 17.138	 0.0	 0.0	 1	    1.09501	   -7.99961	 220.0	 3	    1.11000	    0.95000;
	109	 1	 56.444	 10.902	 0.0	 0.0	 1	    1.09504	   -8.01039	 220.0	 3	    1.11000	    0.95000;
	110	 1	 0.0	 0.0	 0.0	 0.0	 1	    1.09262	  -10.27689	 220.0	 3	    1.11000	    0.95000;
	111	 1	 0.0	 0.0	 0.0	 0.0	 1	    1.09299	   -9.90677	 220.0	 3	    1.11000	    0.95000;
	112	 1	 0.0	 0.0	 0.0	 0.0	 1	    1.09299	   -9.90889	 220.0	 3	    1.11000	    0.95000;
	113	 1	 0.0	 0.0	 0.0	 0.0	 1	    1.09096	  -10.39824	 220.0	 3	    1.11000	    0.95000;
	114	 1	 0.0	 0.0	 0.0	 0.0	 1	    1.09098	  -10.39022	 220.0	 3	    1.11000	    0.95000;
	115	 1	 0.0	 0.0	 0.0	 0.0	 1	    1.04037	   -5.92768	 400.0	 3	    1.05000	    0.95000;
	116	 2	 0.0	 0.0	 0.0	 0.0	 1	    1.09468	   -9.33655	 220.0	 3	    1.11000	    0.95000;
	117	 2	 7.999	 14.999	 0.0	 0.0	 1	    1.09463	   -9.32694	 220.0	 3	    1.11000	    0.95000;
	118	 2	 5.499	 9.999	 0.0	 0.0	 1	    1.09863	   -9.84966	 220.0	 3	    1.11000	    0.95000;
	119	 1	 0.0	 0.0	 0.0	 0.0	 1	    1.09861	   -9.85303	 220.0	 3	    1.11000	    0.95000;
	120	 1	 0.0	 0.0	 0.0	 0.0	 1	    1.04292	   -7.36242	 400.0	 3	    1.05000	    0.95000;
	121	 1	 0.0	 0.0	 0.0	 0.0	 1	    1.04296	   -7.35651	 400.0	 3	    1.05000	    0.95000;
	122	 1	 0.0	 0.0	 0.0	 0.0	 1	    1.04440	   -5.37633	 400.0	 3	    1.05000	    0.95000;
	123	 1	 0.0	 0.0	 0.0	 0.0	 1	    1.04444	   -5.36993	 400.0	 3	    1.05000	    0.95000;
	124	 1	 0.0	 0.0	 0.0	 0.0	 1	    1.09285	  -10.29705	 220.0	 3	    1.11000	    0.95000;
	125	 2	 19.213	 21.474	 0.0	 0.0	 1	    1.11000	   -8.21831	 220.0	 3	    1.11000	    0.95000;
	126	 2	 30.672	 33.602	 0.0	 0.0	 1	    1.10993	   -8.23172	 220.0	 3	    1.11000	    0.95000;
	127	 2	 27.999	 65.999	 0.0	 0.0	 1	    1.03904	   -5.46788	 400.0	 3	    1.05000	    0.95000;
	128	 1	 0.0	 0.0	 0.0	 0.0	 1	    1.03904	   -5.47665	 400.0	 3	    1.05000	    0.95000;
	129	 1	 0.0	 0.0	 0.0	 0.0	 1	    1.09870	   -5.22695	 220.0	 3	    1.11000	    0.95000;
	130	 1	 0.0	 0.0	 0.0	 0.0	 1	    1.09871	   -5.22825	 220.0	 3	    1.11000	    0.95000;
	131	 1	 0.0	 0.0	 0.0	 0.0	 1	    1.10001	   -5.07059	 220.0	 3	    1.11000	    0.95000;
	132	 2	 271.999	 -62.001	 0.0	 0.0	 1	    1.09704	  -16.10323	 220.0	 3	    1.11000	    0.95000;
	133	 2	 266.5	 -24.8	 0.0	 0.0	 1	    1.09494	  -16.09011	 220.0	 3	    1.11000	    0.95000;
	134	 2	 14.931	 12.88	 0.0	 0.0	 1	    1.11000	   -3.94533	 220.0	 4	    1.11000	    0.95000;
	135	 2	 8.013	 6.525	 0.0	 0.0	 1	    1.10989	   -3.95465	 220.0	 4	    1.11000	    0.95000;
	136	 1	 0.0	 0.0	 0.0	 0.0	 1	    1.07282	   -7.63757	 220.0	 4	    1.11000	    0.95000;
	137	 1	 0.0	 0.0	 0.0	 0.0	 1	    1.07402	   -6.68037	 220.0	 4	    1.11000	    0.95000;
	138	 1	 0.0	 0.0	 0.0	 0.0	 1	    1.04187	   -5.71679	 400.0	 4	    1.05000	    0.95000;
	139	 1	 0.0	 0.0	 0.0	 0.0	 1	    1.04190	   -5.71894	 400.0	 4	    1.05000	    0.95000;
	140	 1	 0.0	 0.0	 0.0	 0.0	 1	    1.10455	  -10.12445	 220.0	 4	    1.11000	    0.95000;
	141	 1	 0.0	 0.0	 0.0	 0.0	 1	    1.08717	   -6.45200	 220.0	 4	    1.11000	    0.95000;
	142	 1	 0.0	 0.0	 0.0	 0.0	 1	    1.08717	   -6.45200	 220.0	 4	    1.11000	    0.95000;
	143	 1	 0.0	 0.0	 0.0	 0.0	 1	    1.08577	   -7.88472	 220.0	 4	    1.11000	    0.95000;
	144	 1	 0.0	 0.0	 0.0	 0.0	 1	    1.08680	   -7.17378	 220.0	 4	    1.11000	    0.95000;
	145	 1	 0.0	 0.0	 0.0	 0.0	 1	    1.08680	   -7.17378	 220.0	 4	    1.11000	    0.95000;
	146	 2	 55.255	 6.955	 0.0	 0.0	 1	    1.09915	   -6.04735	 220.0	 4	    1.11000	    0.95000;
	147	 2	 10.077	 8.4	 0.0	 0.0	 1	    1.09914	   -6.05486	 220.0	 4	    1.11000	    0.95000;
	148	 2	 11.5	 6.86	 0.0	 0.0	 1	    1.08683	   -5.38455	 220.0	 4	    1.11000	    0.95000;
	149	 1	 4.423	 1.347	 0.0	 0.0	 1	    1.08676	   -5.40352	 220.0	 4	    1.11000	    0.95000;
	150	 2	 12.633	 6.828	 0.0	 0.0	 1	    1.01865	   -7.73582	 400.0	 4	    1.05000	    0.95000;
	151	 2	 12.397	 10.045	 0.0	 0.0	 1	    1.01862	   -7.74792	 400.0	 4	    1.05000	    0.95000;
	152	 1	 0.0	 0.0	 0.0	 0.0	 1	    1.08826	  -10.77650	 220.0	 4	    1.11000	    0.95000;
	153	 1	 0.0	 0.0	 0.0	 0.0	 1	    1.07843	   -8.69181	 220.0	 4	    1.11000	    0.95000;
	154	 1	 0.0	 0.0	 0.0	 0.0	 1	    1.07846	   -8.68113	 220.0	 4	    1.11000	    0.95000;
	155	 2	 33.593	 44.976	 0.0	 0.0	 1	    1.07621	   -4.25133	 220.0	 4	    1.11000	    0.95000;
	156	 2	 33.832	 45.07	 0.0	 0.0	 1	    1.07829	   -2.49018	 220.0	 4	    1.11000	    0.95000;
	157	 1	 0.0	 0.0	 0.0	 0.0	 1	    1.07621	   -4.25133	 220.0	 4	    1.11000	    0.95000;
	158	 1	 0.0	 0.0	 0.0	 0.0	 1	    1.02590	   -3.25859	 400.0	 4	    1.05000	    0.95000;
	159	 2	 8.687	 17.49	 0.0	 0.0	 1	    1.02588	   -3.25137	 400.0	 4	    1.05000	    0.95000;
	160	 1	 0.0	 0.0	 0.0	 0.0	 1	    1.08695	   -6.59355	 220.0	 4	    1.11000	    0.95000;
	161	 1	 0.0	 0.0	 0.0	 0.0	 1	    1.08695	   -6.59355	 220.0	 4	    1.11000	    0.95000;
	162	 1	 0.0	 0.0	 0.0	 0.0	 1	    1.05000	   -6.45580	 400.0	 4	    1.05000	    0.95000;
	163	 1	 0.0	 0.0	 0.0	 0.0	 1	    1.04833	   -5.77851	 400.0	 4	    1.05000	    0.95000;
	164	 1	 0.0	 0.0	 0.0	 0.0	 1	    1.04832	   -5.77837	 400.0	 4	    1.05000	    0.95000;
	165	 2	 5.495	 9.587	 0.0	 0.0	 1	    1.09792	   -6.22646	 220.0	 4	    1.11000	    0.95000;
	166	 2	 10.099	 4.886	 0.0	 0.0	 1	    1.09784	   -6.24042	 220.0	 4	    1.11000	    0.95000;
	167	 1	 14.36	 13.623	 0.0	 0.0	 1	    1.09789	   -6.22774	 220.0	 4	    1.11000	    0.95000;
	168	 1	 0.0	 0.0	 0.0	 0.0	 1	    1.10071	  -14.90075	 220.0	 4	    1.11000	    0.95000;
	169	 1	 0.0	 0.0	 0.0	 0.0	 1	    1.09004	   -6.56726	 220.0	 4	    1.11000	    0.95000;
	170	 1	 0.0	 0.0	 0.0	 0.0	 1	    1.11000	  -10.79929	 220.0	 4	    1.11000	    0.95000;
	171	 1	 0.0	 0.0	 0.0	 0.0	 1	    1.10989	  -10.80218	 220.0	 4	    1.11000	    0.95000;
	172	 1	 0.0	 0.0	 0.0	 0.0	 1	    0.96229	  -10.37814	 400.0	 4	    1.05000	    0.95000;
	173	 1	 0.0	 0.0	 0.0	 0.0	 1	    0.96229	  -10.37814	 400.0	 4	    1.05000	    0.95000;
	174	 1	 0.0	 0.0	 0.0	 0.0	 1	    1.06568	   -9.49473	 220.0	 4	    1.11000	    0.95000;
	175	 1	 0.0	 0.0	 0.0	 0.0	 1	    1.06570	   -9.49614	 220.0	 4	    1.11000	    0.95000;
	176	 1	 0.0	 0.0	 0.0	 0.0	 1	    1.10831	  -11.02569	 220.0	 4	    1.11000	    0.95000;
	177	 1	 0.0	 0.0	 0.0	 0.0	 1	    1.07777	   -7.19548	 220.0	 4	    1.11000	    0.95000;
	178	 1	 0.0	 0.0	 0.0	 0.0	 1	    1.07780	   -7.19144	 220.0	 4	    1.11000	    0.95000;
	179	 1	 0.0	 0.0	 0.0	 0.0	 1	    1.08653	   -7.69580	 220.0	 4	    1.11000	    0.95000;
	180	 1	 0.0	 0.0	 0.0	 0.0	 1	    1.08653	   -7.69580	 220.0	 4	    1.11000	    0.95000;
	181	 1	 0.0	 0.0	 0.0	 0.0	 1	    1.06430	  -10.11824	 220.0	 4	    1.11000	    0.95000;
	182	 1	 0.0	 0.0	 0.0	 0.0	 1	    1.05404	  -13.41207	 220.0	 5	    1.11000	    0.95000;
	183	 1	 0.0	 0.0	 0.0	 0.0	 1	    1.08770	  -17.29916	 220.0	 5	    1.11000	    0.95000;
	184	 1	 0.0	 0.0	 0.0	 0.0	 1	    1.00463	  -16.35187	 400.0	 5	    1.05000	    0.95000;
	185	 1	 0.0	 0.0	 0.0	 0.0	 1	    1.00466	  -16.33969	 400.0	 5	    1.05000	    0.95000;
	186	 1	 0.0	 0.0	 0.0	 0.0	 1	    0.98918	  -21.33376	 400.0	 5	    1.05000	    0.95000;
	187	 1	 0.0	 0.0	 0.0	 0.0	 1	    0.98918	  -21.33985	 400.0	 5	    1.05000	    0.95000;
	188	 1	 0.0	 0.0	 0.0	 0.0	 1	    1.05218	  -19.28187	 220.0	 5	    1.11000	    0.95000;
	189	 1	 0.0	 0.0	 0.0	 0.0	 1	    1.05223	  -19.28326	 220.0	 5	    1.11000	    0.95000;
	190	 1	 0.0	 0.0	 0.0	 0.0	 1	    1.04770	  -15.68889	 220.0	 5	    1.11000	    0.95000;
	191	 1	 0.0	 0.0	 0.0	 0.0	 1	    1.04775	  -15.68579	 220.0	 5	    1.11000	    0.95000;
	192	 1	 0.0	 0.0	 0.0	 0.0	 1	    0.99450	  -15.45386	 400.0	 5	    1.05000	    0.95000;
	193	 1	 0.0	 0.0	 0.0	 0.0	 1	    1.05948	  -13.01882	 220.0	 5	    1.11000	    0.95000;
	194	 1	 0.0	 0.0	 0.0	 0.0	 1	    1.05948	  -13.01723	 220.0	 5	    1.11000	    0.95000;
	195	 1	 0.0	 0.0	 0.0	 0.0	 1	    0.99287	  -20.49790	 400.0	 5	    1.05000	    0.95000;
	196	 1	 0.0	 0.0	 0.0	 0.0	 1	    0.99286	  -20.49566	 400.0	 5	    1.05000	    0.95000;
	197	 1	 0.0	 0.0	 0.0	 0.0	 1	    1.05901	  -14.26034	 220.0	 5	    1.11000	    0.95000;
	198	 1	 0.0	 0.0	 0.0	 0.0	 1	    1.05899	  -14.25182	 220.0	 5	    1.11000	    0.95000;
	199	 1	 0.0	 0.0	 0.0	 0.0	 1	    0.99758	  -18.89648	 400.0	 5	    1.05000	    0.95000;
	200	 1	 0.0	 0.0	 0.0	 0.0	 1	    0.99763	  -18.87895	 400.0	 5	    1.05000	    0.95000;
	201	 1	 0.0	 0.0	 0.0	 0.0	 1	    1.03970	  -15.32062	 220.0	 5	    1.11000	    0.95000;
	202	 1	 0.0	 0.0	 0.0	 0.0	 1	    1.03970	  -15.31427	 220.0	 5	    1.11000	    0.95000;
	203	 1	 0.0	 0.0	 0.0	 0.0	 1	    1.04459	  -12.80570	 220.0	 5	    1.11000	    0.95000;
	204	 1	 0.0	 0.0	 0.0	 0.0	 1	    1.04450	  -12.81990	 220.0	 5	    1.11000	    0.95000;
	205	 2	 619.912	 0.0	 0.0	 0.0	 1	    0.98270	  -23.24799	 400.0	 5	    1.05000	    0.95000;
	206	 2	 205.255	 0.0	 0.0	 0.0	 1	    0.98270	  -23.24793	 400.0	 5	    1.05000	    0.95000;
	207	 1	 0.0	 0.0	 0.0	 0.0	 1	    1.08031	  -18.37713	 220.0	 5	    1.11000	    0.95000;
	208	 1	 0.0	 0.0	 0.0	 0.0	 1	    1.08029	  -18.37921	 220.0	 5	    1.11000	    0.95000;
	209	 1	 5.821	 1.5	 0.0	 0.0	 1	    1.08886	   -8.11149	 110.0	 1	    1.12000	    0.95000;
	210	 1	 4.366	 0.5	 0.0	 0.0	 1	    1.08092	  -14.23751	 110.0	 1	    1.12000	    0.95000;
	211	 1	 7.761	 2.0	 0.0	 0.0	 1	    1.09622	   -8.50598	 110.0	 1	    1.12000	    0.95000;
	212	 1	 6.306	 5.6	 0.0	 0.0	 1	    1.04402	  -11.39082	 110.0	 1	    1.12000	    0.95000;
	213	 1	 2.523	 0.6	 0.0	 0.0	 1	    1.07215	    0.33819	 110.0	 1	    1.12000	    0.95000;
	214	 1	 4.851	 1.3	 0.0	 0.0	 1	    1.08458	   -2.01604	 110.0	 1	    1.12000	    0.95000;
	215	 2	 19.194	 8.0	 0.0	 0.0	 1	    1.11924	   -6.27638	 110.0	 1	    1.12000	    0.95000;
	216	 1	 14.553	 1.5	 0.0	 0.0	 1	    1.11812	   -6.58751	 110.0	 1	    1.12000	    0.95000;
	217	 1	 4.851	 1.0	 0.0	 0.0	 1	    1.11827	   -6.52165	 110.0	 1	    1.12000	    0.95000;
	218	 1	 4.851	 1.0	 0.0	 0.0	 1	    1.11824	   -6.50603	 110.0	 1	    1.12000	    0.95000;
	219	 2	 8.247	 1.6	 0.0	 0.0	 1	    1.07801	  -11.04813	 110.0	 1	    1.12000	    0.95000;
	220	 1	 5.822	 1.5	 0.0	 0.0	 1	    1.08424	   -9.23341	 110.0	 1	    1.12000	    0.95000;
	221	 2	 0.0	 0.0	 0.0	 0.0	 1	    1.07118	   -9.55889	 110.0	 1	    1.12000	    0.95000;
	222	 2	 6.306	 1.5	 0.0	 0.0	 1	    1.09756	   -6.15058	 110.0	 1	    1.12000	    0.95000;
	223	 2	 15.523	 2.6	 0.0	 0.0	 1	    1.08415	  -10.37373	 110.0	 1	    1.12000	    0.95000;
	224	 1	 1.649	 0.4	 0.0	 0.0	 1	    1.05759	   -1.11707	 110.0	 1	    1.12000	    0.95000;
	225	 1	 2.425	 0.2	 0.0	 0.0	 1	    1.06187	  -12.80490	 110.0	 1	    1.12000	    0.95000;
	226	 1	 2.911	 0.5	 0.0	 0.0	 1	    1.09998	  -10.69158	 110.0	 1	    1.12000	    0.95000;
	227	 1	 10.672	 0.499	 0.0	 0.0	 1	    1.10660	   -7.63994	 110.0	 1	    1.12000	    0.95000;
	228	 1	 6.791	 2.0	 0.0	 0.0	 1	    1.07883	  -10.83163	 110.0	 1	    1.12000	    0.95000;
	229	 2	 2.231	 1.05	 0.0	 0.0	 1	    1.11205	   -3.75044	 110.0	 1	    1.12000	    0.95000;
	230	 2	 2.231	 1.05	 0.0	 0.0	 1	    1.11242	   -3.74695	 110.0	 1	    1.12000	    0.95000;
	231	 1	 11.642	 6.0	 0.0	 0.0	 1	    1.07716	  -10.59907	 110.0	 1	    1.12000	    0.95000;
	232	 1	 4.366	 1.0	 0.0	 0.0	 1	    1.08555	   -1.91143	 110.0	 1	    1.12000	    0.95000;
	233	 1	 8.732	 1.0	 0.0	 0.0	 1	    1.07348	   -7.05341	 110.0	 1	    1.12000	    0.95000;
	234	 1	 16.493	 14.0	 0.0	 0.0	 1	    1.07109	   -0.53865	 110.0	 1	    1.12000	    0.95000;
	235	 1	 3.978	 0.5	 0.0	 0.0	 1	    1.06826	  -12.11541	 110.0	 1	    1.12000	    0.95000;
	236	 1	 8.926	 3.64	 0.0	 0.0	 1	    1.11480	   -3.65895	 110.0	 1	    1.12000	    0.95000;
	237	 1	 4.463	 0.3	 0.0	 0.0	 1	    1.06889	  -12.04817	 110.0	 1	    1.12000	    0.95000;
	238	 1	 5.821	 1.0	 0.0	 0.0	 1	    1.09158	   -8.41244	 110.0	 1	    1.12000	    0.95000;
	239	 2	 4.305	 1.175	 0.0	 0.0	 1	    1.07312	  -10.19288	 110.0	 1	    1.12000	    0.95000;
	240	 1	 7.471	 1.0	 0.0	 0.0	 1	    1.04690	  -16.29118	 110.0	 1	    1.12000	    0.95000;
	241	 1	 4.463	 1.67	 0.0	 0.0	 1	    1.11570	   -3.49967	 110.0	 1	    1.12000	    0.95000;
	242	 1	 6.791	 0.7	 0.0	 0.0	 1	    1.11784	   -4.21241	 110.0	 1	    1.12000	    0.95000;
	243	 1	 0.0	 0.0	 0.0	 0.0	 1	    1.11791	   -4.18782	 110.0	 1	    1.12000	    0.95000;
	244	 1	 2.231	 1.4	 0.0	 0.0	 1	    1.09751	   -4.04609	 110.0	 1	    1.12000	    0.95000;
	245	 1	 0.0	 0.0	 0.0	 0.0	 1	    1.08120	    1.35823	 110.0	 1	    1.12000	    0.95000;
	246	 2	 1.982	 5.0	 0.0	 0.0	 1	    1.09054	    4.00178	 22.0	 1	    1.12000	    0.95000;
	247	 1	 6.792	 1.5	 0.0	 0.0	 1	    1.09782	  -11.86979	 110.0	 1	    1.12000	    0.95000;
	248	 1	 1.94	 0.5	 0.0	 0.0	 1	    1.09551	  -12.60625	 110.0	 1	    1.12000	    0.95000;
	249	 1	 1.94	 0.5	 0.0	 0.0	 1	    1.10624	  -11.00718	 110.0	 1	    1.12000	    0.95000;
	250	 1	 2.911	 0.5	 0.0	 0.0	 1	    1.06683	  -15.61859	 110.0	 1	    1.12000	    0.95000;
	251	 1	 2.814	 0.5	 0.0	 0.0	 1	    1.07259	  -10.79204	 110.0	 1	    1.12000	    0.95000;
	252	 1	 10.672	 7.0	 0.0	 0.0	 1	    1.07053	   -3.96568	 110.0	 1	    1.12000	    0.95000;
	253	 1	 21.345	 5.0	 0.0	 0.0	 1	    1.07579	  -10.81741	 110.0	 1	    1.12000	    0.95000;
	254	 1	 8.732	 2.0	 0.0	 0.0	 1	    1.06341	  -16.01267	 110.0	 1	    1.12000	    0.95000;
	255	 1	 18.433	 1.0	 0.0	 0.0	 1	    1.10402	  -10.59048	 110.0	 1	    1.12000	    0.95000;
	256	 1	 3.396	 0.5	 0.0	 0.0	 1	    1.10463	  -10.70272	 110.0	 1	    1.12000	    0.95000;
	257	 1	 2.425	 0.35	 0.0	 0.0	 1	    1.07340	    0.28672	 110.0	 1	    1.12000	    0.95000;
	258	 1	 2.425	 0.35	 0.0	 0.0	 1	    1.07334	    0.27655	 110.0	 1	    1.12000	    0.95000;
	259	 1	 6.791	 2.54	 0.0	 0.0	 1	    1.10537	   -4.30437	 110.0	 1	    1.12000	    0.95000;
	260	 1	 4.851	 1.0	 0.0	 0.0	 1	    1.06494	  -16.00119	 110.0	 1	    1.12000	    0.95000;
	261	 1	 2.134	 0.5	 0.0	 0.0	 1	    1.10184	   -8.49301	 110.0	 1	    1.12000	    0.95000;
	262	 1	 7.276	 1.6	 0.0	 0.0	 1	    1.08799	   -8.02476	 110.0	 1	    1.12000	    0.95000;
	263	 1	 0.776	 0.5	 0.0	 0.0	 1	    1.06386	  -13.23697	 110.0	 1	    1.12000	    0.95000;
	264	 1	 41.719	 37.0	 0.0	 0.0	 1	    1.07863	    1.04975	 110.0	 1	    1.12000	    0.95000;
	265	 1	 43.66	 40.0	 0.0	 0.0	 1	    1.07845	   -1.69509	 110.0	 1	    1.12000	    0.95000;
	266	 1	 2.911	 1.0	 0.0	 0.0	 1	    1.08254	  -10.12402	 110.0	 1	    1.12000	    0.95000;
	267	 1	 8.247	 0.7	 0.0	 0.0	 1	    1.07934	  -10.75649	 110.0	 1	    1.12000	    0.95000;
	268	 1	 5.336	 1.1	 0.0	 0.0	 1	    1.07045	  -10.71004	 110.0	 1	    1.12000	    0.95000;
	269	 1	 7.761	 1.5	 0.0	 0.0	 1	    1.10800	   -7.61633	 110.0	 1	    1.12000	    0.95000;
	270	 1	 5.821	 1.5	 0.0	 0.0	 1	    1.06848	  -15.23066	 110.0	 1	    1.12000	    0.95000;
	271	 1	 10.672	 2.75	 0.0	 0.0	 1	    1.08378	   -9.13721	 110.0	 1	    1.12000	    0.95000;
	272	 1	 0.098	 0.0	 0.0	 0.0	 1	    1.08024	  -10.58629	 110.0	 1	    1.12000	    0.95000;
	273	 1	 0.097	 0.03	 0.0	 0.0	 1	    1.10347	   -7.92390	 110.0	 1	    1.12000	    0.95000;
	274	 1	 0.097	 0.03	 0.0	 0.0	 1	    1.09573	   -8.49664	 110.0	 1	    1.12000	    0.95000;
	275	 1	 7.451	 3.94	 0.0	 0.0	 1	    1.11221	   -3.12319	 110.0	 1	    1.12000	    0.95000;
	276	 1	 4.967	 2.63	 0.0	 0.0	 1	    1.11682	   -3.37477	 110.0	 1	    1.12000	    0.95000;
	277	 1	 5.239	 1.2	 0.0	 0.0	 1	    1.10057	   -5.90940	 110.0	 1	    1.12000	    0.95000;
	278	 1	 1.94	 0.0	 0.0	 0.0	 1	    1.11179	   -6.84020	 110.0	 1	    1.12000	    0.95000;
	279	 1	 5.336	 0.0	 0.0	 0.0	 1	    1.09888	   -7.20378	 110.0	 1	    1.12000	    0.95000;
	280	 1	 10.672	 3.0	 0.0	 0.0	 1	    1.09683	   -8.45637	 110.0	 1	    1.12000	    0.95000;
	281	 1	 7.761	 1.0	 0.0	 0.0	 1	    1.07111	   -9.60849	 110.0	 1	    1.12000	    0.95000;
	282	 1	 22.314	 21.0	 0.0	 0.0	 1	    1.07045	   -1.43142	 110.0	 1	    1.12000	    0.95000;
	283	 1	 15.524	 13.0	 0.0	 0.0	 1	    1.07034	   -1.41361	 110.0	 1	    1.12000	    0.95000;
	284	 1	 7.762	 3.17	 0.0	 0.0	 1	    1.11059	   -3.09292	 110.0	 1	    1.12000	    0.95000;
	285	 1	 10.672	 1.6	 0.0	 0.0	 1	    1.10721	   -3.85991	 110.0	 1	    1.12000	    0.95000;
	286	 1	 5.821	 0.5	 0.0	 0.0	 1	    1.09418	  -10.26022	 110.0	 1	    1.12000	    0.95000;
	287	 1	 3.396	 0.0	 0.0	 0.0	 1	    1.11291	   -8.04024	 110.0	 1	    1.12000	    0.95000;
	288	 1	 2.425	 0.5	 0.0	 0.0	 1	    1.07341	   -9.98779	 110.0	 1	    1.12000	    0.95000;
	289	 1	 2.425	 0.6	 0.0	 0.0	 1	    1.10261	   -4.66671	 110.0	 1	    1.12000	    0.95000;
	290	 1	 16.008	 6.0	 0.0	 0.0	 1	    1.07199	   -9.49923	 110.0	 1	    1.12000	    0.95000;
	291	 2	 9.702	 1.0	 0.0	 0.0	 1	    1.10311	   -8.32612	 110.0	 1	    1.12000	    0.95000;
	292	 1	 5.239	 1.96	 0.0	 0.0	 1	    1.11033	   -2.99239	 110.0	 1	    1.12000	    0.95000;
	293	 1	 1.94	 1.3	 0.0	 0.0	 1	    1.07783	   -7.19358	 110.0	 1	    1.12000	    0.95000;
	294	 2	 4.657	 0.8	 0.0	 0.0	 1	    1.07818	  -11.16482	 110.0	 1	    1.12000	    0.95000;
	295	 1	 6.209	 0.9	 0.0	 0.0	 1	    1.10317	   -4.62484	 110.0	 1	    1.12000	    0.95000;
	296	 1	 3.881	 2.0	 0.0	 0.0	 1	    1.10846	   -4.62737	 110.0	 1	    1.12000	    0.95000;
	297	 1	 7.276	 2.97	 0.0	 0.0	 1	    1.10954	   -3.89916	 110.0	 1	    1.12000	    0.95000;
	298	 1	 9.8	 3.67	 0.0	 0.0	 1	    1.11122	   -3.81057	 110.0	 1	    1.12000	    0.95000;
	299	 2	 9.702	 3.5	 0.0	 0.0	 1	    1.10747	   -7.41290	 110.0	 1	    1.12000	    0.95000;
	300	 1	 0.0	 0.0	 0.0	 0.0	 1	    1.11709	   -3.37893	 110.0	 1	    1.12000	    0.95000;
	301	 1	 3.881	 0.5	 0.0	 0.0	 1	    1.05307	   -1.73781	 110.0	 1	    1.12000	    0.95000;
	302	 1	 8.15	 3.33	 0.0	 0.0	 1	    1.11036	   -2.98787	 110.0	 1	    1.12000	    0.95000;
	303	 1	 9.605	 3.59	 0.0	 0.0	 1	    1.11550	   -3.50775	 110.0	 1	    1.12000	    0.95000;
	304	 1	 13.291	 4.97	 0.0	 0.0	 1	    1.11212	   -3.05335	 110.0	 1	    1.12000	    0.95000;
	305	 1	 14.844	 5.55	 0.0	 0.0	 1	    1.11021	   -3.87140	 110.0	 1	    1.12000	    0.95000;
	306	 2	 78.068	 52.19	 0.0	 0.0	 1	    1.10628	   -4.02978	 110.0	 1	    1.12000	    0.95000;
	307	 2	 52.074	 20.97	 0.0	 0.0	 1	    1.11175	   -3.77661	 110.0	 1	    1.12000	    0.95000;
	308	 2	 18.922	 9.47	 0.0	 0.0	 1	    1.11828	   -3.37647	 110.0	 1	    1.12000	    0.95000;
	309	 1	 0.0	 0.0	 0.0	 0.0	 1	    1.10979	   -3.88925	 110.0	 1	    1.12000	    0.95000;
	310	 2	 36.737	 19.74	 0.0	 0.0	 1	    1.11394	   -2.98911	 110.0	 1	    1.12000	    0.95000;
	311	 2	 29.633	 16.42	 0.0	 0.0	 1	    1.11749	   -3.57527	 110.0	 1	    1.12000	    0.95000;
	312	 1	 8.053	 0.8	 0.0	 0.0	 1	    1.10698	   -4.14195	 110.0	 1	    1.12000	    0.95000;
	313	 1	 1.94	 0.0	 0.0	 0.0	 1	    1.11250	   -7.35014	 110.0	 1	    1.12000	    0.95000;
	314	 1	 0.97	 0.501	 0.0	 0.0	 1	    1.07617	   -9.94652	 110.0	 1	    1.12000	    0.95000;
	315	 1	 5.578	 0.75	 0.0	 0.0	 1	    1.07335	  -10.20031	 110.0	 1	    1.12000	    0.95000;
	316	 1	 8.489	 1.25	 0.0	 0.0	 1	    1.07340	  -10.19427	 110.0	 1	    1.12000	    0.95000;
	317	 1	 12.419	 3.0	 0.0	 0.0	 1	    1.08752	   -9.05363	 110.0	 1	    1.12000	    0.95000;
	318	 1	 6.694	 2.5	 0.0	 0.0	 1	    1.11146	   -3.04639	 110.0	 1	    1.12000	    0.95000;
	319	 2	 12.03	 4.5	 0.0	 0.0	 1	    1.11164	   -3.16972	 110.0	 1	    1.12000	    0.95000;