%%%%%%%%%%%%%%%%%%%%%%%%%%%%%%%%%%%%%%%%%%%%%%%%%%%%%%%%%%%%%%%%%%%%%%%%%%%
%%%%                                                                  %%%%%
%%%%    IEEE PES Power Grid Library - Optimal Power Flow - v23.07     %%%%%
%%%%          (https://github.com/power-grid-lib/pglib-opf)           %%%%%
%%%%             Benchmark Group - Small Angle Difference             %%%%%
%%%%                         23 - July - 2023                         %%%%%
%%%%                                                                  %%%%%
%%%%%%%%%%%%%%%%%%%%%%%%%%%%%%%%%%%%%%%%%%%%%%%%%%%%%%%%%%%%%%%%%%%%%%%%%%%
function mpc = pglib_opf_case4601_goc__sad
mpc.version = '2';
mpc.baseMVA = 100.0;

%% bus data
%	bus_i	type	Pd	Qd	Gs	Bs	area	Vm	Va	baseKV	zone	Vmax	Vmin
mpc.bus = [
	1	 1	 0.0	 0.0	 0.0	 0.0	 1	    0.97500	    0.00000	 69.0	 1	    1.05000	    0.90000;
	2	 2	 0.0	 0.0	 0.0	 0.0	 1	    0.97500	    0.00000	 138.0	 1	    1.05000	    0.90000;
	3	 1	 0.0	 0.0	 0.0	 0.0	 1	    0.97500	    0.00000	 69.0	 1	    1.05000	    0.90000;
	4	 1	 0.0	 0.0	 0.0	 0.0	 1	    0.97500	    0.00000	 69.0	 1	    1.05000	    0.90000;
	5	 1	 0.0	 0.0	 0.0	 0.0	 1	    0.97500	    0.00000	 138.0	 1	    1.05000	    0.90000;
	6	 1	 0.0	 0.0	 0.0	 0.0	 1	    0.97500	    0.00000	 69.0	 1	    1.05000	    0.90000;
	7	 1	 0.0	 0.0	 0.0	 0.0	 1	    0.97500	    0.00000	 69.0	 1	    1.05000	    0.90000;
	8	 1	 0.0	 0.0	 0.0	 0.0	 1	    0.97500	    0.00000	 69.0	 1	    1.05000	    0.90000;
	9	 1	 0.0	 0.0	 0.0	 0.0	 1	    0.97500	    0.00000	 69.0	 1	    1.05000	    0.90000;
	10	 1	 0.0	 0.0	 0.0	 0.0	 1	    0.97500	    0.00000	 69.0	 1	    1.05000	    0.90000;
	11	 2	 0.0	 0.0	 0.0	 0.0	 1	    0.97500	    0.00000	 69.0	 1	    1.05000	    0.90000;
	12	 1	 0.0	 0.0	 0.0	 0.0	 1	    0.97500	    0.00000	 69.0	 1	    1.05000	    0.90000;
	13	 1	 0.0	 0.0	 0.0	 0.0	 1	    0.97500	    0.00000	 69.0	 1	    1.05000	    0.90000;
	14	 1	 0.0	 0.0	 0.0	 0.0	 1	    0.97500	    0.00000	 69.0	 1	    1.05000	    0.90000;
	15	 1	 0.0	 0.0	 0.0	 0.0	 1	    0.97500	    0.00000	 69.0	 1	    1.05000	    0.90000;
	16	 1	 0.0	 0.0	 0.0	 0.0	 1	    0.97500	    0.00000	 69.0	 1	    1.05000	    0.90000;
	17	 1	 0.0	 0.0	 0.0	 0.0	 1	    0.97500	    0.00000	 69.0	 1	    1.05000	    0.90000;
	18	 1	 0.0	 0.0	 0.0	 0.0	 1	    0.97500	    0.00000	 69.0	 1	    1.05000	    0.90000;
	19	 2	 0.0	 0.0	 0.0	 0.0	 1	    0.97500	    0.00000	 69.0	 1	    1.05000	    0.90000;
	20	 2	 0.0	 0.0	 0.0	 0.0	 1	    0.97500	    0.00000	 138.0	 1	    1.05000	    0.90000;
	21	 2	 0.0	 0.0	 0.0	 0.0	 1	    0.97500	    0.00000	 69.0	 1	    1.05000	    0.90000;
	22	 1	 0.0	 0.0	 0.0	 0.0	 1	    0.97500	    0.00000	 69.0	 1	    1.05000	    0.90000;
	23	 1	 0.0	 0.0	 0.0	 0.0	 1	    0.97500	    0.00000	 69.0	 1	    1.05000	    0.90000;
	24	 2	 0.0	 0.0	 0.0	 0.0	 1	    0.97500	    0.00000	 138.0	 1	    1.05000	    0.90000;
	25	 2	 0.0	 0.0	 0.0	 0.0	 1	    0.97500	    0.00000	 69.0	 1	    1.05000	    0.90000;
	26	 2	 0.0	 0.0	 0.0	 0.0	 1	    0.97500	    0.00000	 69.0	 1	    1.05000	    0.90000;
	27	 2	 0.0	 0.0	 0.0	 0.0	 1	    0.97500	    0.00000	 69.0	 1	    1.05000	    0.90000;
	28	 1	 0.0	 0.0	 0.0	 0.0	 1	    0.97500	    0.00000	 69.0	 1	    1.05000	    0.90000;
	29	 2	 0.0	 0.0	 0.0	 0.0	 1	    0.97500	    0.00000	 69.0	 1	    1.05000	    0.90000;
	30	 2	 0.0	 0.0	 0.0	 0.0	 1	    0.97500	    0.00000	 69.0	 1	    1.05000	    0.90000;
	31	 2	 0.0	 0.0	 0.0	 0.0	 1	    0.97500	    0.00000	 69.0	 1	    1.05000	    0.90000;
	32	 1	 0.0	 0.0	 0.0	 0.0	 1	    0.97500	    0.00000	 69.0	 1	    1.05000	    0.90000;
	33	 1	 0.0	 0.0	 0.0	 0.0	 1	    0.97500	    0.00000	 69.0	 1	    1.05000	    0.90000;
	34	 1	 0.0	 0.0	 0.0	 0.0	 1	    0.97500	    0.00000	 69.0	 1	    1.05000	    0.90000;
	35	 1	 0.0	 0.0	 0.0	 0.0	 1	    0.97500	    0.00000	 69.0	 1	    1.05000	    0.90000;
	36	 1	 0.0	 0.0	 0.0	 0.0	 1	    0.97500	    0.00000	 69.0	 1	    1.05000	    0.90000;
	37	 1	 0.0	 0.0	 0.0	 0.0	 1	    0.97500	    0.00000	 69.0	 1	    1.05000	    0.90000;
	38	 1	 0.0	 0.0	 0.0	 0.0	 1	    0.97500	    0.00000	 69.0	 1	    1.05000	    0.90000;
	39	 1	 0.0	 0.0	 0.0	 0.0	 1	    0.97500	    0.00000	 69.0	 1	    1.05000	    0.90000;
	40	 1	 0.0	 0.0	 0.0	 0.0	 1	    0.97500	    0.00000	 69.0	 1	    1.05000	    0.90000;
	41	 1	 0.0	 0.0	 0.0	 0.0	 1	    0.97500	    0.00000	 69.0	 1	    1.05000	    0.90000;
	42	 1	 0.0	 0.0	 0.0	 0.0	 1	    0.97500	    0.00000	 69.0	 1	    1.05000	    0.90000;
	43	 1	 0.0	 0.0	 0.0	 0.0	 1	    0.97500	    0.00000	 69.0	 1	    1.05000	    0.90000;
	44	 1	 0.0	 0.0	 0.0	 0.0	 1	    0.97500	    0.00000	 69.0	 1	    1.05000	    0.90000;
	45	 1	 0.0	 0.0	 0.0	 0.0	 1	    0.97500	    0.00000	 69.0	 1	    1.05000	    0.90000;
	46	 1	 0.0	 0.0	 0.0	 0.0	 1	    0.97500	    0.00000	 69.0	 1	    1.05000	    0.90000;
	47	 1	 0.0	 0.0	 0.0	 0.0	 1	    0.97500	    0.00000	 138.0	 1	    1.05000	    0.90000;
	48	 1	 0.0	 0.0	 0.0	 0.0	 1	    0.97500	    0.00000	 69.0	 1	    1.05000	    0.90000;
	49	 1	 0.0	 0.0	 0.0	 0.0	 1	    0.97500	    0.00000	 69.0	 1	    1.05000	    0.90000;
	50	 2	 0.0	 0.0	 0.0	 0.0	 1	    0.97500	    0.00000	 69.0	 1	    1.05000	    0.90000;
	51	 1	 0.0	 0.0	 0.0	 0.0	 1	    0.97500	    0.00000	 69.0	 1	    1.05000	    0.90000;
	52	 1	 0.0	 0.0	 0.0	 0.0	 1	    0.97500	    0.00000	 69.0	 1	    1.05000	    0.90000;
	53	 2	 0.0	 0.0	 0.0	 0.0	 1	    0.97500	    0.00000	 69.0	 1	    1.05000	    0.90000;
	54	 1	 0.0	 0.0	 0.0	 0.0	 1	    0.97500	    0.00000	 69.0	 1	    1.05000	    0.90000;
	55	 2	 0.0	 0.0	 0.0	 0.0	 1	    0.97500	    0.00000	 69.0	 1	    1.05000	    0.90000;
	56	 1	 0.0	 0.0	 0.0	 0.0	 1	    0.97500	    0.00000	 69.0	 1	    1.05000	    0.90000;
	57	 2	 0.0	 0.0	 0.0	 0.0	 1	    0.97500	    0.00000	 69.0	 1	    1.05000	    0.90000;
	58	 1	 0.0	 0.0	 0.0	 0.0	 1	    0.97500	    0.00000	 69.0	 1	    1.05000	    0.90000;
	59	 1	 0.0	 0.0	 0.0	 0.0	 1	    0.97500	    0.00000	 69.0	 1	    1.05000	    0.90000;
	60	 1	 0.0	 0.0	 0.0	 0.0	 1	    0.97500	    0.00000	 69.0	 1	    1.05000	    0.90000;
	61	 1	 0.0	 0.0	 0.0	 0.0	 1	    0.97500	    0.00000	 69.0	 1	    1.05000	    0.90000;
	62	 2	 0.0	 0.0	 0.0	 0.0	 1	    0.97500	    0.00000	 69.0	 1	    1.05000	    0.90000;
	63	 2	 0.0	 0.0	 0.0	 0.0	 1	    0.97500	    0.00000	 138.0	 1	    1.05000	    0.90000;
	64	 1	 0.0	 0.0	 0.0	 0.0	 1	    0.97500	    0.00000	 69.0	 1	    1.05000	    0.90000;
	65	 2	 0.0	 0.0	 0.0	 0.0	 1	    0.97500	    0.00000	 69.0	 1	    1.05000	    0.90000;
	66	 2	 0.0	 0.0	 0.0	 0.0	 1	    0.97500	    0.00000	 69.0	 1	    1.05000	    0.90000;
	67	 1	 0.0	 0.0	 0.0	 0.0	 1	    0.97500	    0.00000	 69.0	 1	    1.05000	    0.90000;
	68	 2	 0.0	 0.0	 0.0	 0.0	 1	    0.97500	    0.00000	 69.0	 1	    1.05000	    0.90000;
	69	 1	 0.0	 0.0	 0.0	 0.0	 1	    0.97500	    0.00000	 69.0	 1	    1.05000	    0.90000;
	70	 2	 0.0	 0.0	 0.0	 0.0	 1	    0.97500	    0.00000	 69.0	 1	    1.05000	    0.90000;
	71	 2	 0.0	 0.0	 0.0	 0.0	 1	    0.97500	    0.00000	 69.0	 1	    1.05000	    0.90000;
	72	 1	 0.0	 0.0	 0.0	 0.0	 1	    0.97500	    0.00000	 69.0	 1	    1.05000	    0.90000;
	73	 2	 0.0	 0.0	 0.0	 0.0	 1	    0.97500	    0.00000	 69.0	 1	    1.05000	    0.90000;
	74	 1	 0.0	 0.0	 0.0	 0.0	 1	    0.97500	    0.00000	 69.0	 1	    1.05000	    0.90000;
	75	 1	 0.0	 0.0	 0.0	 0.0	 1	    0.97500	    0.00000	 69.0	 1	    1.05000	    0.90000;
	76	 2	 0.0	 0.0	 0.0	 0.0	 1	    0.97500	    0.00000	 138.0	 1	    1.05000	    0.90000;
	77	 1	 0.0	 0.0	 0.0	 0.0	 1	    0.97500	    0.00000	 69.0	 1	    1.05000	    0.90000;
	78	 1	 0.0	 0.0	 0.0	 0.0	 1	    0.97500	    0.00000	 69.0	 1	    1.05000	    0.90000;
	79	 2	 0.0	 0.0	 0.0	 0.0	 1	    0.97500	    0.00000	 138.0	 1	    1.05000	    0.90000;
	80	 1	 0.0	 0.0	 0.0	 0.0	 1	    0.97500	    0.00000	 69.0	 1	    1.05000	    0.90000;
	81	 1	 0.0	 0.0	 0.0	 0.0	 1	    0.97500	    0.00000	 69.0	 1	    1.05000	    0.90000;
	82	 1	 0.0	 0.0	 0.0	 0.0	 1	    0.97500	    0.00000	 69.0	 1	    1.05000	    0.90000;
	83	 1	 0.0	 0.0	 0.0	 0.0	 1	    0.97500	    0.00000	 69.0	 1	    1.05000	    0.90000;
	84	 1	 0.0	 0.0	 0.0	 0.0	 1	    0.97500	    0.00000	 69.0	 1	    1.05000	    0.90000;
	85	 1	 0.0	 0.0	 0.0	 0.0	 1	    0.97500	    0.00000	 138.0	 1	    1.05000	    0.90000;
	86	 1	 0.0	 0.0	 0.0	 0.0	 1	    0.97500	    0.00000	 69.0	 1	    1.05000	    0.90000;
	87	 2	 0.0	 0.0	 0.0	 0.0	 1	    0.97500	    0.00000	 69.0	 1	    1.05000	    0.90000;
	88	 2	 0.0	 0.0	 0.0	 0.0	 1	    0.97500	    0.00000	 69.0	 1	    1.05000	    0.90000;
	89	 1	 0.0	 0.0	 0.0	 0.0	 1	    0.97500	    0.00000	 69.0	 1	    1.05000	    0.90000;
	90	 1	 0.0	 0.0	 0.0	 0.0	 1	    0.97500	    0.00000	 69.0	 1	    1.05000	    0.90000;
	91	 2	 0.0	 0.0	 0.0	 0.0	 1	    0.97500	    0.00000	 69.0	 1	    1.05000	    0.90000;
	92	 2	 0.0	 0.0	 0.0	 0.0	 1	    0.97500	    0.00000	 69.0	 1	    1.05000	    0.90000;
	93	 1	 0.0	 0.0	 0.0	 0.0	 1	    0.97500	    0.00000	 69.0	 1	    1.05000	    0.90000;
	94	 1	 0.0	 0.0	 0.0	 0.0	 1	    0.97500	    0.00000	 69.0	 1	    1.05000	    0.90000;
	95	 2	 0.0	 0.0	 0.0	 0.0	 1	    0.97500	    0.00000	 69.0	 1	    1.05000	    0.90000;
	96	 1	 0.0	 0.0	 0.0	 0.0	 1	    0.97500	    0.00000	 69.0	 1	    1.05000	    0.90000;
	97	 2	 0.0	 0.0	 0.0	 0.0	 1	    0.97500	    0.00000	 69.0	 1	    1.05000	    0.90000;
	98	 1	 0.0	 0.0	 0.0	 0.0	 1	    0.97500	    0.00000	 69.0	 1	    1.05000	    0.90000;
	99	 1	 0.0	 0.0	 0.0	 0.0	 1	    0.97500	    0.00000	 69.0	 1	    1.05000	    0.90000;
	100	 1	 0.0	 0.0	 0.0	 0.0	 1	    0.97500	    0.00000	 69.0	 1	    1.05000	    0.90000;
	101	 2	 0.0	 0.0	 0.0	 0.0	 1	    0.97500	    0.00000	 69.0	 1	    1.05000	    0.90000;
	102	 2	 0.0	 0.0	 0.0	 0.0	 1	    0.97500	    0.00000	 138.0	 1	    1.05000	    0.90000;
	103	 1	 0.0	 0.0	 0.0	 0.0	 1	    0.97500	    0.00000	 69.0	 1	    1.05000	    0.90000;
	104	 2	 0.0	 0.0	 0.0	 0.0	 1	    0.97500	    0.00000	 69.0	 1	    1.05000	    0.90000;
	105	 1	 0.0	 0.0	 0.0	 0.0	 1	    0.97500	    0.00000	 69.0	 1	    1.05000	    0.90000;
	106	 1	 0.0	 0.0	 0.0	 0.0	 1	    0.97500	    0.00000	 138.0	 1	    1.05000	    0.90000;
	107	 1	 0.0	 0.0	 0.0	 0.0	 1	    0.97500	    0.00000	 69.0	 1	    1.05000	    0.90000;
	108	 1	 0.0	 0.0	 0.0	 0.0	 1	    0.97500	    0.00000	 69.0	 1	    1.05000	    0.90000;
	109	 1	 0.0	 0.0	 0.0	 0.0	 1	    0.97500	    0.00000	 69.0	 1	    1.05000	    0.90000;
	110	 1	 0.0	 0.0	 0.0	 0.0	 1	    0.97500	    0.00000	 69.0	 1	    1.05000	    0.90000;
	111	 1	 0.0	 0.0	 0.0	 0.0	 1	    0.97500	    0.00000	 69.0	 1	    1.05000	    0.90000;
	112	 2	 0.0	 0.0	 0.0	 0.0	 1	    0.97500	    0.00000	 69.0	 1	    1.05000	    0.90000;
	113	 2	 0.0	 0.0	 0.0	 0.0	 1	    0.97500	    0.00000	 69.0	 1	    1.05000	    0.90000;
	114	 2	 0.0	 0.0	 0.0	 0.0	 1	    0.97500	    0.00000	 69.0	 1	    1.05000	    0.90000;
	115	 1	 0.0	 0.0	 0.0	 0.0	 1	    0.97500	    0.00000	 69.0	 1	    1.05000	    0.90000;
	116	 1	 0.0	 0.0	 0.0	 0.0	 1	    0.97500	    0.00000	 69.0	 1	    1.05000	    0.90000;
	117	 1	 0.0	 0.0	 0.0	 0.0	 1	    0.97500	    0.00000	 69.0	 1	    1.05000	    0.90000;
	118	 1	 0.0	 0.0	 0.0	 0.0	 1	    0.97500	    0.00000	 69.0	 1	    1.05000	    0.90000;
	119	 1	 0.0	 0.0	 0.0	 0.0	 1	    0.97500	    0.00000	 69.0	 1	    1.05000	    0.90000;
	120	 1	 0.0	 0.0	 0.0	 0.0	 1	    0.97500	    0.00000	 69.0	 1	    1.05000	    0.90000;
	121	 1	 0.0	 0.0	 0.0	 0.0	 1	    0.97500	    0.00000	 69.0	 1	    1.05000	    0.90000;
	122	 1	 0.0	 0.0	 0.0	 0.0	 1	    0.97500	    0.00000	 69.0	 1	    1.05000	    0.90000;
	123	 2	 0.0	 0.0	 0.0	 0.0	 1	    0.97500	    0.00000	 69.0	 1	    1.05000	    0.90000;
	124	 1	 0.0	 0.0	 0.0	 0.0	 1	    0.97500	    0.00000	 69.0	 1	    1.05000	    0.90000;
	125	 1	 0.0	 0.0	 0.0	 0.0	 1	    0.97500	    0.00000	 69.0	 1	    1.05000	    0.90000;
	126	 2	 0.0	 0.0	 0.0	 0.0	 1	    0.97500	    0.00000	 69.0	 1	    1.05000	    0.90000;
	127	 1	 0.0	 0.0	 0.0	 0.0	 1	    0.97500	    0.00000	 69.0	 1	    1.05000	    0.90000;
	128	 2	 0.0	 0.0	 0.0	 0.0	 1	    0.97500	    0.00000	 69.0	 1	    1.05000	    0.90000;
	129	 2	 0.0	 0.0	 0.0	 0.0	 1	    0.97500	    0.00000	 69.0	 1	    1.05000	    0.90000;
	130	 1	 0.0	 0.0	 0.0	 0.0	 1	    0.97500	    0.00000	 69.0	 1	    1.05000	    0.90000;
	131	 1	 0.0	 0.0	 0.0	 0.0	 1	    0.97500	    0.00000	 69.0	 1	    1.05000	    0.90000;
	132	 1	 6.04	 2.174	 0.0	 0.0	 1	    0.97500	    0.00000	 69.0	 1	    1.05000	    0.90000;
	133	 1	 5.09	 0.731	 0.0	 0.0	 1	    0.97500	    0.00000	 69.0	 1	    1.05000	    0.90000;
	134	 1	 8.531	 0.858	 0.0	 0.0	 1	    0.97500	    0.00000	 69.0	 1	    1.05000	    0.90000;
	135	 1	 4.563	 0.663	 0.0	 0.0	 1	    0.97500	    0.00000	 69.0	 1	    1.05000	    0.90000;
	136	 1	 11.135	 1.989	 0.0	 0.0	 1	    0.97500	    0.00000	 69.0	 1	    1.05000	    0.90000;
	137	 1	 4.504	 0.653	 0.0	 0.0	 1	    0.97500	    0.00000	 69.0	 1	    1.05000	    0.90000;
	138	 1	 7.244	 0.731	 0.0	 0.0	 1	    0.97500	    0.00000	 69.0	 1	    1.05000	    0.90000;
	139	 1	 8.853	 0.897	 0.0	 0.0	 1	    0.97500	    0.00000	 69.0	 1	    1.05000	    0.90000;
	140	 1	 4.456	 0.448	 0.0	 0.0	 1	    0.97500	    0.00000	 69.0	 1	    1.05000	    0.90000;
	141	 1	 7.595	 1.092	 0.0	 0.0	 1	    0.97500	    0.00000	 69.0	 1	    1.05000	    0.90000;
	142	 1	 4.144	 0.741	 0.0	 0.0	 1	    0.97500	    0.00000	 69.0	 1	    1.05000	    0.90000;
	143	 1	 7.761	 0.78	 0.0	 0.0	 1	    0.97500	    0.00000	 69.0	 1	    1.05000	    0.90000;
	144	 1	 7.215	 1.287	 0.0	 0.0	 1	    0.97500	    0.00000	 69.0	 1	    1.05000	    0.90000;
	145	 1	 5.684	 1.014	 0.0	 0.0	 1	    0.97500	    0.00000	 69.0	 1	    1.05000	    0.90000;
	146	 1	 3.559	 0.517	 0.0	 0.0	 1	    0.97500	    0.00000	 69.0	 1	    1.05000	    0.90000;
	147	 1	 13.299	 1.921	 0.0	 0.0	 1	    0.97500	    0.00000	 69.0	 1	    1.05000	    0.90000;
	148	 1	 3.139	 0.322	 0.0	 0.0	 1	    0.97500	    0.00000	 69.0	 1	    1.05000	    0.90000;
	149	 1	 3.18	 0.887	 0.0	 0.0	 1	    0.97500	    0.00000	 69.0	 1	    1.05000	    0.90000;
	150	 1	 3.286	 0.478	 0.0	 0.0	 1	    0.97500	    0.00000	 69.0	 1	    1.05000	    0.90000;
	151	 1	 4.173	 0.419	 0.0	 0.0	 1	    0.97500	    0.00000	 69.0	 1	    1.05000	    0.90000;
	152	 1	 7.03	 1.258	 0.0	 0.0	 1	    0.97500	    0.00000	 69.0	 1	    1.05000	    0.90000;
	153	 1	 6.045	 1.082	 0.0	 0.0	 1	    0.97500	    0.00000	 69.0	 1	    1.05000	    0.90000;
	154	 1	 6.25	 0.634	 0.0	 0.0	 1	    0.97500	    0.00000	 69.0	 1	    1.05000	    0.90000;
	155	 1	 7.059	 1.014	 0.0	 0.0	 1	    0.97500	    0.00000	 69.0	 1	    1.05000	    0.90000;
	156	 1	 3.452	 0.351	 0.0	 0.0	 1	    0.97500	    0.00000	 69.0	 1	    1.05000	    0.90000;
	157	 1	 8.151	 1.18	 0.0	 0.0	 1	    0.97500	    0.00000	 69.0	 1	    1.05000	    0.90000;
	158	 1	 6.367	 0.917	 0.0	 0.0	 1	    0.97500	    0.00000	 69.0	 1	    1.05000	    0.90000;
	159	 1	 15.229	 2.194	 0.0	 0.0	 1	    0.97500	    0.00000	 69.0	 1	    1.05000	    0.90000;
	160	 1	 34.544	 6.172	 0.0	 0.0	 1	    0.97500	    0.00000	 69.0	 1	    1.05000	    0.90000;
	161	 1	 8.414	 1.501	 0.0	 0.0	 1	    0.97500	    0.00000	 69.0	 1	    1.05000	    0.90000;
	162	 1	 22.942	 2.321	 0.0	 0.0	 1	    0.97500	    0.00000	 69.0	 1	    1.05000	    0.90000;
	163	 1	 12.607	 2.252	 0.0	 0.0	 1	    0.97500	    0.00000	 69.0	 1	    1.05000	    0.90000;
	164	 1	 5.333	 0.955	 0.0	 0.0	 1	    0.97500	    0.00000	 69.0	 1	    1.05000	    0.90000;
	165	 1	 8.736	 1.56	 0.0	 0.0	 1	    0.97500	    0.00000	 69.0	 1	    1.05000	    0.90000;
	166	 1	 4.865	 0.488	 0.0	 0.0	 1	    0.97500	    0.00000	 69.0	 1	    1.05000	    0.90000;
	167	 1	 3.92	 0.702	 0.0	 0.0	 1	    0.97500	    0.00000	 69.0	 1	    1.05000	    0.90000;
	168	 1	 13.709	 1.385	 0.0	 0.0	 1	    0.97500	    0.00000	 69.0	 1	    1.05000	    0.90000;
	169	 1	 12.11	 1.745	 0.0	 0.0	 1	    0.97500	    0.00000	 69.0	 1	    1.05000	    0.90000;
	170	 1	 24.638	 2.486	 0.0	 0.0	 1	    0.97500	    0.00000	 69.0	 1	    1.05000	    0.90000;
	171	 1	 2.038	 0.292	 0.0	 0.0	 1	    0.97500	    0.00000	 69.0	 1	    1.05000	    0.90000;
	172	 1	 5.324	 0.536	 0.0	 0.0	 1	    0.97500	    0.00000	 69.0	 1	    1.05000	    0.90000;
	173	 1	 6.474	 0.653	 0.0	 0.0	 1	    0.97500	    0.00000	 69.0	 1	    1.05000	    0.90000;
	174	 1	 3.627	 0.526	 0.0	 0.0	 1	    0.97500	    0.00000	 69.0	 1	    1.05000	    0.90000;
	175	 1	 5.762	 0.585	 0.0	 0.0	 1	    0.97500	    0.00000	 69.0	 1	    1.05000	    0.90000;
	176	 1	 5.304	 0.77	 0.0	 0.0	 1	    0.97500	    0.00000	 69.0	 1	    1.05000	    0.90000;
	177	 1	 18.71	 2.701	 0.0	 0.0	 1	    0.97500	    0.00000	 69.0	 1	    1.05000	    0.90000;
	178	 1	 2.827	 0.283	 0.0	 0.0	 1	    0.97500	    0.00000	 69.0	 1	    1.05000	    0.90000;
	179	 1	 8.034	 1.433	 0.0	 0.0	 1	    0.97500	    0.00000	 69.0	 1	    1.05000	    0.90000;
	180	 1	 4.329	 0.624	 0.0	 0.0	 1	    0.97500	    0.00000	 69.0	 1	    1.05000	    0.90000;
	181	 1	 3.871	 0.556	 0.0	 0.0	 1	    0.97500	    0.00000	 69.0	 1	    1.05000	    0.90000;
	182	 1	 9.126	 1.316	 0.0	 0.0	 1	    0.97500	    0.00000	 69.0	 1	    1.05000	    0.90000;
	183	 1	 9.662	 1.394	 0.0	 0.0	 1	    0.97500	    0.00000	 69.0	 1	    1.05000	    0.90000;
	184	 1	 4.856	 0.868	 0.0	 0.0	 1	    0.97500	    0.00000	 69.0	 1	    1.05000	    0.90000;
	185	 1	 1.404	 0.146	 0.0	 0.0	 1	    0.97500	    0.00000	 69.0	 1	    1.05000	    0.90000;
	186	 1	 4.504	 0.653	 0.0	 0.0	 1	    0.97500	    0.00000	 69.0	 1	    1.05000	    0.90000;
	187	 1	 8.892	 1.589	 0.0	 0.0	 1	    0.97500	    0.00000	 69.0	 1	    1.05000	    0.90000;
	188	 1	 3.559	 0.361	 0.0	 0.0	 1	    0.97500	    0.00000	 69.0	 1	    1.05000	    0.90000;
	189	 1	 2.72	 0.39	 0.0	 0.0	 1	    0.97500	    0.00000	 69.0	 1	    1.05000	    0.90000;
	190	 1	 7.595	 1.355	 0.0	 0.0	 1	    0.97500	    0.00000	 69.0	 1	    1.05000	    0.90000;
	191	 1	 4.085	 0.41	 0.0	 0.0	 1	    0.97500	    0.00000	 69.0	 1	    1.05000	    0.90000;
	192	 1	 2.623	 0.263	 0.0	 0.0	 1	    0.97500	    0.00000	 69.0	 1	    1.05000	    0.90000;
	193	 1	 8.492	 0.858	 0.0	 0.0	 1	    0.97500	    0.00000	 69.0	 1	    1.05000	    0.90000;
	194	 1	 12.363	 1.248	 0.0	 0.0	 1	    0.97500	    0.00000	 69.0	 1	    1.05000	    0.90000;
	195	 1	 4.651	 0.829	 0.0	 0.0	 1	    0.97500	    0.00000	 69.0	 1	    1.05000	    0.90000;
	196	 1	 5.324	 0.77	 0.0	 0.0	 1	    0.97500	    0.00000	 69.0	 1	    1.05000	    0.90000;
	197	 1	 4.992	 0.887	 0.0	 0.0	 1	    0.97500	    0.00000	 69.0	 1	    1.05000	    0.90000;
	198	 1	 7.381	 1.316	 0.0	 0.0	 1	    0.97500	    0.00000	 69.0	 1	    1.05000	    0.90000;
	199	 1	 3.89	 0.565	 0.0	 0.0	 1	    0.97500	    0.00000	 69.0	 1	    1.05000	    0.90000;
	200	 1	 9.643	 1.726	 0.0	 0.0	 1	    0.97500	    0.00000	 69.0	 1	    1.05000	    0.90000;
	201	 1	 5.977	 1.063	 0.0	 0.0	 1	    0.97500	    0.00000	 69.0	 1	    1.05000	    0.90000;
	202	 1	 3.022	 0.536	 0.0	 0.0	 1	    0.97500	    0.00000	 69.0	 1	    1.05000	    0.90000;
	203	 1	 3.549	 0.634	 0.0	 0.0	 1	    0.97500	    0.00000	 69.0	 1	    1.05000	    0.90000;
	204	 1	 8.18	 1.462	 0.0	 0.0	 1	    0.97500	    0.00000	 69.0	 1	    1.05000	    0.90000;
	205	 1	 6.757	 0.975	 0.0	 0.0	 1	    0.97500	    0.00000	 69.0	 1	    1.05000	    0.90000;
	206	 1	 2.096	 0.215	 0.0	 0.0	 1	    0.97500	    0.00000	 69.0	 1	    1.05000	    0.90000;
	207	 1	 6.289	 1.121	 0.0	 0.0	 1	    0.97500	    0.00000	 69.0	 1	    1.05000	    0.90000;
	208	 1	 3.491	 0.507	 0.0	 0.0	 1	    0.97500	    0.00000	 69.0	 1	    1.05000	    0.90000;
	209	 1	 4.817	 0.858	 0.0	 0.0	 1	    0.97500	    0.00000	 69.0	 1	    1.05000	    0.90000;
	210	 1	 10.667	 1.901	 0.0	 0.0	 1	    0.97500	    0.00000	 69.0	 1	    1.05000	    0.90000;
	211	 1	 3.871	 0.556	 0.0	 0.0	 1	    0.97500	    0.00000	 69.0	 1	    1.05000	    0.90000;
	212	 1	 4.036	 0.41	 0.0	 0.0	 1	    0.97500	    0.00000	 69.0	 1	    1.05000	    0.90000;
	213	 1	 2.847	 0.283	 0.0	 0.0	 1	    0.97500	    0.00000	 69.0	 1	    1.05000	    0.90000;
	214	 1	 5.177	 0.926	 0.0	 0.0	 1	    0.97500	    0.00000	 69.0	 1	    1.05000	    0.90000;
	215	 1	 3.725	 0.536	 0.0	 0.0	 1	    0.97500	    0.00000	 69.0	 1	    1.05000	    0.90000;
	216	 1	 1.54	 0.634	 0.0	 0.0	 1	    0.97500	    0.00000	 69.0	 1	    1.05000	    0.90000;
	217	 1	 12.441	 1.258	 0.0	 0.0	 1	    0.97500	    0.00000	 69.0	 1	    1.05000	    0.90000;
	218	 1	 3.481	 0.507	 0.0	 0.0	 1	    0.97500	    0.00000	 69.0	 1	    1.05000	    0.90000;
	219	 1	 3.783	 0.673	 0.0	 0.0	 1	    0.97500	    0.00000	 69.0	 1	    1.05000	    0.90000;
	220	 1	 2.418	 0.429	 0.0	 0.0	 1	    0.97500	    0.00000	 69.0	 1	    1.05000	    0.90000;
	221	 1	 5.099	 0.517	 0.0	 0.0	 1	    0.97500	    0.00000	 69.0	 1	    1.05000	    0.90000;
	222	 1	 15.434	 2.223	 0.0	 0.0	 1	    0.97500	    0.00000	 69.0	 1	    1.05000	    0.90000;
	223	 1	 1.823	 0.322	 0.0	 0.0	 1	    0.97500	    0.00000	 69.0	 1	    1.05000	    0.90000;
	224	 1	 2.087	 0.302	 0.0	 0.0	 1	    0.97500	    0.00000	 69.0	 1	    1.05000	    0.90000;
	225	 1	 6.991	 0.702	 0.0	 0.0	 1	    0.97500	    0.00000	 69.0	 1	    1.05000	    0.90000;
	226	 1	 6.952	 1.004	 0.0	 0.0	 1	    0.97500	    0.00000	 69.0	 1	    1.05000	    0.90000;
	227	 1	 1.862	 0.332	 0.0	 0.0	 1	    0.97500	    0.00000	 69.0	 1	    1.05000	    0.90000;
	228	 1	 4.154	 0.595	 0.0	 0.0	 1	    0.97500	    0.00000	 69.0	 1	    1.05000	    0.90000;
	229	 1	 7.293	 1.307	 0.0	 0.0	 1	    0.97500	    0.00000	 69.0	 1	    1.05000	    0.90000;
	230	 1	 7.04	 1.258	 0.0	 0.0	 1	    0.97500	    0.00000	 69.0	 1	    1.05000	    0.90000;
	231	 1	 6.338	 0.917	 0.0	 0.0	 1	    0.97500	    0.00000	 69.0	 1	    1.05000	    0.90000;
	232	 1	 9.565	 0.965	 0.0	 0.0	 1	    0.97500	    0.00000	 69.0	 1	    1.05000	    0.90000;
	233	 1	 6.991	 1.004	 0.0	 0.0	 1	    0.97500	    0.00000	 69.0	 1	    1.05000	    0.90000;
	234	 1	 30.576	 4.417	 0.0	 0.0	 1	    0.97500	    0.00000	 69.0	 1	    1.05000	    0.90000;
	235	 1	 8.434	 1.501	 0.0	 0.0	 1	    0.97500	    0.00000	 69.0	 1	    1.05000	    0.90000;
	236	 1	 3.325	 0.595	 0.0	 0.0	 1	    0.97500	    0.00000	 69.0	 1	    1.05000	    0.90000;
	237	 1	 24.395	 2.467	 0.0	 0.0	 1	    0.97500	    0.00000	 69.0	 1	    1.05000	    0.90000;
	238	 1	 5.285	 0.536	 0.0	 0.0	 1	    0.97500	    0.00000	 69.0	 1	    1.05000	    0.90000;
	239	 1	 7.283	 1.297	 0.0	 0.0	 1	    0.97500	    0.00000	 69.0	 1	    1.05000	    0.90000;
	240	 1	 6.708	 0.673	 0.0	 0.0	 1	    0.97500	    0.00000	 69.0	 1	    1.05000	    0.90000;
	241	 1	 5.372	 0.955	 0.0	 0.0	 1	    0.97500	    0.00000	 69.0	 1	    1.05000	    0.90000;
	242	 1	 3.52	 0.351	 0.0	 0.0	 1	    0.97500	    0.00000	 69.0	 1	    1.05000	    0.90000;
	243	 1	 7.03	 1.258	 0.0	 0.0	 1	    0.97500	    0.00000	 69.0	 1	    1.05000	    0.90000;
	244	 1	 3.598	 0.361	 0.0	 0.0	 1	    0.97500	    0.00000	 69.0	 1	    1.05000	    0.90000;
	245	 1	 5.051	 0.897	 0.0	 0.0	 1	    0.97500	    0.00000	 69.0	 1	    1.05000	    0.90000;
	246	 1	 1.9	 0.878	 0.0	 0.0	 1	    0.97500	    0.00000	 69.0	 1	    1.05000	    0.90000;
	247	 1	 9.955	 1.774	 0.0	 0.0	 1	    0.97500	    0.00000	 69.0	 1	    1.05000	    0.90000;
	248	 1	 1.26	 0.468	 0.0	 0.0	 1	    0.97500	    0.00000	 138.0	 1	    1.05000	    0.90000;
	249	 1	 10.208	 1.823	 0.0	 0.0	 1	    0.97500	    0.00000	 69.0	 1	    1.05000	    0.90000;
	250	 1	 3.822	 0.683	 0.0	 0.0	 1	    0.97500	    0.00000	 69.0	 1	    1.05000	    0.90000;
	251	 1	 3.28	 0.907	 0.0	 0.0	 1	    0.97500	    0.00000	 69.0	 1	    1.05000	    0.90000;
	252	 1	 3.96	 1.433	 0.0	 0.0	 1	    0.97500	    0.00000	 69.0	 1	    1.05000	    0.90000;
	253	 1	 5.987	 0.868	 0.0	 0.0	 1	    0.97500	    0.00000	 69.0	 1	    1.05000	    0.90000;
	254	 1	 5.596	 0.994	 0.0	 0.0	 1	    0.97500	    0.00000	 69.0	 1	    1.05000	    0.90000;
	255	 1	 6.669	 0.965	 0.0	 0.0	 1	    0.97500	    0.00000	 69.0	 1	    1.05000	    0.90000;
	256	 1	 3.491	 0.351	 0.0	 0.0	 1	    0.97500	    0.00000	 69.0	 1	    1.05000	    0.90000;
	257	 1	 15.951	 2.847	 0.0	 0.0	 1	    0.97500	    0.00000	 69.0	 1	    1.05000	    0.90000;
	258	 1	 3.5	 0.351	 0.0	 0.0	 1	    0.97500	    0.00000	 69.0	 1	    1.05000	    0.90000;
	259	 1	 2.857	 0.507	 0.0	 0.0	 1	    0.97500	    0.00000	 69.0	 1	    1.05000	    0.90000;
	260	 1	 9.497	 1.375	 0.0	 0.0	 1	    0.97500	    0.00000	 69.0	 1	    1.05000	    0.90000;
	261	 1	 2.944	 0.429	 0.0	 0.0	 1	    0.97500	    0.00000	 69.0	 1	    1.05000	    0.90000;
	262	 1	 1.96	 0.351	 0.0	 0.0	 1	    0.97500	    0.00000	 69.0	 1	    1.05000	    0.90000;
	263	 1	 22.63	 2.282	 0.0	 0.0	 1	    0.97500	    0.00000	 69.0	 1	    1.05000	    0.90000;
	264	 1	 5.431	 0.546	 0.0	 0.0	 1	    0.97500	    0.00000	 69.0	 1	    1.05000	    0.90000;
	265	 1	 5.596	 0.994	 0.0	 0.0	 1	    0.97500	    0.00000	 69.0	 1	    1.05000	    0.90000;
	266	 1	 5.08	 0.907	 0.0	 0.0	 1	    0.97500	    0.00000	 69.0	 1	    1.05000	    0.90000;
	267	 1	 32.877	 4.748	 0.0	 0.0	 1	    0.97500	    0.00000	 69.0	 1	    1.05000	    0.90000;
	268	 1	 17.248	 2.486	 0.0	 0.0	 1	    0.97500	    0.00000	 69.0	 1	    1.05000	    0.90000;
	269	 1	 6.932	 0.702	 0.0	 0.0	 1	    0.97500	    0.00000	 69.0	 1	    1.05000	    0.90000;
	270	 1	 5.83	 0.838	 0.0	 0.0	 1	    0.97500	    0.00000	 69.0	 1	    1.05000	    0.90000;
	271	 1	 26.881	 2.71	 0.0	 0.0	 1	    0.97500	    0.00000	 69.0	 1	    1.05000	    0.90000;
	272	 1	 40.063	 7.157	 0.0	 0.0	 1	    0.97500	    0.00000	 69.0	 1	    1.05000	    0.90000;
	273	 1	 43.436	 7.751	 0.0	 0.0	 1	    0.97500	    0.00000	 69.0	 1	    1.05000	    0.90000;
	274	 1	 12.733	 1.287	 0.0	 0.0	 1	    0.97500	    0.00000	 69.0	 1	    1.05000	    0.90000;
	275	 1	 8.551	 1.238	 0.0	 0.0	 1	    0.97500	    0.00000	 69.0	 1	    1.05000	    0.90000;
	276	 1	 5.899	 0.848	 0.0	 0.0	 1	    0.97500	    0.00000	 69.0	 1	    1.05000	    0.90000;
	277	 1	 5.596	 0.565	 0.0	 0.0	 1	    0.97500	    0.00000	 69.0	 1	    1.05000	    0.90000;
	278	 1	 6.815	 0.692	 0.0	 0.0	 1	    0.97500	    0.00000	 69.0	 1	    1.05000	    0.90000;
	279	 1	 7.264	 1.297	 0.0	 0.0	 1	    0.97500	    0.00000	 69.0	 1	    1.05000	    0.90000;
	280	 1	 10.452	 1.511	 0.0	 0.0	 1	    0.97500	    0.00000	 69.0	 1	    1.05000	    0.90000;
	281	 1	 2.17	 0.526	 0.0	 0.0	 1	    0.97500	    0.00000	 69.0	 1	    1.05000	    0.90000;
	282	 1	 3.07	 1.443	 0.0	 0.0	 1	    0.97500	    0.00000	 69.0	 1	    1.05000	    0.90000;
	283	 1	 1.58	 0.663	 0.0	 0.0	 1	    0.97500	    0.00000	 69.0	 1	    1.05000	    0.90000;
	284	 1	 6.903	 1.228	 0.0	 0.0	 1	    0.97500	    0.00000	 69.0	 1	    1.05000	    0.90000;
	285	 1	 8.287	 1.482	 0.0	 0.0	 1	    0.97500	    0.00000	 69.0	 1	    1.05000	    0.90000;
	286	 1	 2.974	 0.302	 0.0	 0.0	 1	    0.97500	    0.00000	 69.0	 1	    1.05000	    0.90000;
	287	 1	 6.415	 0.926	 0.0	 0.0	 1	    0.97500	    0.00000	 69.0	 1	    1.05000	    0.90000;
	288	 1	 3.77	 0.975	 0.0	 0.0	 1	    0.97500	    0.00000	 69.0	 1	    1.05000	    0.90000;
	289	 1	 3.12	 1.024	 0.0	 0.0	 1	    0.97500	    0.00000	 69.0	 1	    1.05000	    0.90000;
	290	 1	 2.01	 0.712	 0.0	 0.0	 1	    0.97500	    0.00000	 69.0	 1	    1.05000	    0.90000;
	291	 1	 3.471	 0.624	 0.0	 0.0	 1	    0.97500	    0.00000	 69.0	 1	    1.05000	    0.90000;
	292	 1	 2.905	 0.517	 0.0	 0.0	 1	    0.97500	    0.00000	 69.0	 1	    1.05000	    0.90000;
	293	 1	 7.157	 1.277	 0.0	 0.0	 1	    0.97500	    0.00000	 69.0	 1	    1.05000	    0.90000;
	294	 1	 9.272	 1.336	 0.0	 0.0	 1	    0.97500	    0.00000	 69.0	 1	    1.05000	    0.90000;
	295	 1	 41.428	 4.183	 0.0	 0.0	 1	    0.97500	    0.00000	 69.0	 1	    1.05000	    0.90000;
	296	 1	 15.249	 1.541	 0.0	 0.0	 1	    0.97500	    0.00000	 69.0	 1	    1.05000	    0.90000;
	297	 1	 9.233	 1.336	 0.0	 0.0	 1	    0.97500	    0.00000	 69.0	 1	    1.05000	    0.90000;
	298	 1	 4.183	 0.605	 0.0	 0.0	 1	    0.97500	    0.00000	 69.0	 1	    1.05000	    0.90000;
	299	 1	 5.051	 0.731	 0.0	 0.0	 1	    0.97500	    0.00000	 69.0	 1	    1.05000	    0.90000;
	300	 1	 9.223	 1.336	 0.0	 0.0	 1	    0.97500	    0.00000	 69.0	 1	    1.05000	    0.90000;
	301	 1	 2.77	 0.79	 0.0	 0.0	 1	    0.97500	    0.00000	 69.0	 1	    1.05000	    0.90000;
	302	 1	 3.22	 1.336	 0.0	 0.0	 1	    0.97500	    0.00000	 69.0	 1	    1.05000	    0.90000;
	303	 1	 3.53	 1.228	 0.0	 0.0	 1	    0.97500	    0.00000	 69.0	 1	    1.05000	    0.90000;
	304	 1	 4.53	 1.521	 0.0	 0.0	 1	    0.97500	    0.00000	 69.0	 1	    1.05000	    0.90000;
	305	 1	 1.22	 0.526	 0.0	 0.0	 1	    0.97500	    0.00000	 69.0	 1	    1.05000	    0.90000;
	306	 1	 6.172	 1.102	 0.0	 0.0	 1	    0.97500	    0.00000	 69.0	 1	    1.05000	    0.90000;
	307	 1	 3.38	 1.355	 0.0	 0.0	 1	    0.97500	    0.00000	 69.0	 1	    1.05000	    0.90000;
	308	 1	 3.09	 1.024	 0.0	 0.0	 1	    0.97500	    0.00000	 69.0	 1	    1.05000	    0.90000;
	309	 1	 9.46	 2.974	 0.0	 0.0	 1	    0.97500	    0.00000	 69.0	 1	    1.05000	    0.90000;
	310	 1	 2.58	 0.76	 0.0	 0.0	 1	    0.97500	    0.00000	 69.0	 1	    1.05000	    0.90000;
	311	 1	 14.71	 6.201	 0.0	 0.0	 1	    0.97500	    0.00000	 69.0	 1	    1.05000	    0.90000;
	312	 1	 23.186	 2.34	 0.0	 0.0	 1	    0.97500	    0.00000	 69.0	 1	    1.05000	    0.90000;
	313	 1	 4.7	 1.979	 0.0	 0.0	 1	    0.97500	    0.00000	 69.0	 1	    1.05000	    0.90000;
	314	 1	 1.55	 0.994	 0.0	 0.0	 1	    0.97500	    0.00000	 69.0	 1	    1.05000	    0.90000;
	315	 1	 7.118	 1.024	 0.0	 0.0	 1	    0.97500	    0.00000	 69.0	 1	    1.05000	    0.90000;
	316	 1	 3.55	 1.092	 0.0	 0.0	 1	    0.97500	    0.00000	 69.0	 1	    1.05000	    0.90000;
	317	 1	 3.5	 0.936	 0.0	 0.0	 1	    0.97500	    0.00000	 69.0	 1	    1.05000	    0.90000;
	318	 1	 3.01	 1.443	 0.0	 0.0	 1	    0.97500	    0.00000	 69.0	 1	    1.05000	    0.90000;
	319	 1	 15.21	 2.72	 0.0	 0.0	 1	    0.97500	    0.00000	 69.0	 1	    1.05000	    0.90000;
	320	 1	 5.382	 0.965	 0.0	 0.0	 1	    0.97500	    0.00000	 69.0	 1	    1.05000	    0.90000;
	321	 1	 1.1	 0.448	 0.0	 0.0	 1	    0.97500	    0.00000	 69.0	 1	    1.05000	    0.90000;