%%%%%%%%%%%%%%%%%%%%%%%%%%%%%%%%%%%%%%%%%%%%%%%%%%%%%%%%%%%%%%%%%%%%%%%%%%%
%%%%                                                                  %%%%%
%%%%    IEEE PES Power Grid Library - Optimal Power Flow - v17.07     %%%%%
%%%%          (https://github.com/power-grid-lib/pglib-opf)           %%%%%
%%%%             Benchmark Group - Small Angle Difference             %%%%%
%%%%                         27 - June - 2017                         %%%%%
%%%%                                                                  %%%%%
%%%%%%%%%%%%%%%%%%%%%%%%%%%%%%%%%%%%%%%%%%%%%%%%%%%%%%%%%%%%%%%%%%%%%%%%%%%
function mpc = pglib_opf_case1354_pegase__sad
mpc.version = '2';
mpc.baseMVA = 100.0;

%% bus data
%	bus_i	type	Pd	Qd	Gs	Bs	area	Vm	Va	baseKV	zone	Vmax	Vmin
mpc.bus = [
	3	 1	 151.0	 48.8	 0.0	 4.69	 0	    1.07519	   -8.38127	 220.0	 5	    1.10000	    0.90000;
	4	 1	 171.41	 23.4	 0.0	 2.1	 0	    1.06202	   -5.60789	 220.0	 5	    1.10000	    0.90000;
	10	 1	 134.0	 24.7	 0.0	 12.44	 0	    1.06448	  -17.44108	 220.0	 5	    1.10000	    0.90000;
	21	 1	 161.2	 39.3	 0.0	 30.71	 0	    1.05996	  -16.06203	 220.0	 5	    1.10000	    0.90000;
	22	 1	 0.0	 -0.0	 0.0	 0.85	 0	    1.07822	  -11.08755	 220.0	 5	    1.10000	    0.90000;
	26	 1	 167.3	 54.8	 0.0	 110.54	 0	    1.07078	   -1.22289	 380.0	 5	    1.10000	    0.90000;
	29	 1	 152.9	 49.4	 0.0	 27.65	 0	    1.04996	   -3.00494	 380.0	 5	    1.10000	    0.90000;
	44	 1	 -0.0	 0.0	 0.0	 7.27	 0	    1.07134	  -15.46523	 220.0	 5	    1.10000	    0.90000;
	53	 1	 48.65	 16.1	 0.0	 7.14	 0	    1.09073	   -2.11405	 220.0	 5	    1.10000	    0.90000;
	58	 1	 0.0	 0.0	 0.0	 2.31	 0	    1.04516	   -1.17403	 380.0	 5	    1.10000	    0.90000;
	59	 1	 119.2	 20.7	 0.0	 3.31	 0	    1.08399	  -14.63661	 220.0	 5	    1.10000	    0.90000;
	90	 1	 363.25	 115.39	 0.0	 3.95	 0	    1.08210	  -11.00082	 220.0	 5	    1.10000	    0.90000;
	96	 1	 -8.4	 28.66	 0.0	 3.49	 0	    1.09579	   -1.98594	 220.0	 5	    1.10000	    0.90000;
	113	 1	 -0.0	 -0.0	 0.0	 6.532711	 0	    1.06619	   -4.06884	 380.0	 5	    1.10000	    0.90000;
	115	 1	 0.0	 -0.0	 0.0	 4.21	 0	    1.07004	  -12.59035	 220.0	 5	    1.10000	    0.90000;
	118	 1	 704.53	 -35.33	 0.0	 13.102834	 0	    1.07423	   -4.12302	 380.0	 5	    1.10000	    0.90000;
	124	 2	 0.0	 0.0	 0.0	 0.0	 0	    1.07549	    2.12869	 220.0	 5	    1.10000	    0.90000;
	128	 1	 23.73	 12.7	 0.0	 0.52	 0	    1.05041	  -12.67648	 220.0	 5	    1.10000	    0.90000;
	145	 1	 38.34	 5.6	 0.0	 7.64	 0	    1.09099	   -4.22470	 220.0	 5	    1.10000	    0.90000;
	148	 1	 32.34	 12.0	 0.0	 6.1	 0	    1.07300	   -4.35492	 220.0	 5	    1.10000	    0.90000;
	150	 2	 0.0	 0.0	 0.0	 0.0	 0	    1.08393	   -3.11742	 220.0	 5	    1.10000	    0.90000;
	163	 1	 147.76	 32.73	 0.0	 8.34	 0	    1.07923	   -8.54549	 220.0	 5	    1.10000	    0.90000;
	171	 1	 100.8	 13.2	 0.0	 5.24	 0	    1.08936	   -9.59897	 220.0	 5	    1.10000	    0.90000;
	174	 1	 370.5	 -17.0	 0.0	 9.91	 0	    1.09116	  -16.34116	 220.0	 5	    1.10000	    0.90000;
	184	 1	 -0.0	 -0.0	 0.0	 2.42	 0	    1.06428	  -10.14004	 220.0	 5	    1.10000	    0.90000;
	188	 1	 36.84	 13.9	 0.0	 3.3	 0	    1.05730	   -9.70688	 220.0	 5	    1.10000	    0.90000;
	195	 1	 73.14	 21.55	 0.0	 8.52	 0	    1.08351	   -3.80277	 220.0	 5	    1.10000	    0.90000;
	196	 1	 0.0	 -0.0	 0.0	 12.48	 0	    1.09932	  -20.44158	 220.0	 5	    1.10000	    0.90000;
	198	 1	 39.74	 11.8	 0.0	 1.44	 0	    1.04629	  -13.09016	 220.0	 5	    1.10000	    0.90000;
	207	 1	 321.98	 84.4	 0.0	 1.34	 0	    1.04887	  -11.81315	 220.0	 5	    1.10000	    0.90000;
	216	 1	 155.6	 54.7	 0.0	 2.21	 0	    1.08763	  -15.65316	 220.0	 5	    1.10000	    0.90000;
	217	 1	 105.2	 0.1	 0.0	 7.36	 0	    1.04422	   -6.20270	 220.0	 5	    1.10000	    0.90000;
	218	 1	 69.83	 15.12	 0.0	 2.23	 0	    1.08944	   -7.91142	 220.0	 5	    1.10000	    0.90000;
	221	 2	 0.0	 0.0	 0.0	 0.0	 0	    1.04083	   -1.20747	 380.0	 5	    1.10000	    0.90000;
	225	 1	 0.0	 0.0	 0.0	 1.15	 0	    1.06717	  -12.96801	 220.0	 5	    1.10000	    0.90000;
	280	 1	 119.6	 29.6	 0.0	 5.34	 0	    1.08080	   -5.51239	 220.0	 5	    1.10000	    0.90000;
	283	 1	 27.33	 11.9	 0.0	 1.17	 0	    1.05824	  -10.60642	 220.0	 5	    1.10000	    0.90000;
	292	 1	 13.82	 1.4	 0.0	 0.7	 0	    1.09664	   -7.73197	 220.0	 5	    1.10000	    0.90000;
	305	 1	 103.0	 12.0	 0.0	 0.63	 0	    1.08329	  -19.04057	 220.0	 5	    1.10000	    0.90000;
	306	 1	 -0.0	 0.0	 0.0	 4.76	 0	    1.04674	  -14.13644	 220.0	 5	    1.10000	    0.90000;
	314	 1	 163.1	 46.3	 0.0	 10.6	 0	    1.03305	  -14.21450	 220.0	 5	    1.10000	    0.90000;
	333	 1	 524.5	 43.0	 0.0	 6.85	 0	    1.03465	  -26.92461	 220.0	 5	    1.10000	    0.90000;
	338	 2	 0.0	 0.0	 0.0	 0.0	 0	    1.09927	   -3.15426	 220.0	 5	    1.10000	    0.90000;
	346	 1	 197.5	 48.3	 0.0	 0.71	 0	    1.08473	  -13.44562	 220.0	 5	    1.10000	    0.90000;
	350	 1	 110.4	 26.2	 0.0	 5.62	 0	    1.06871	  -16.52924	 220.0	 5	    1.10000	    0.90000;
	352	 2	 0.0	 0.0	 0.0	 0.0	 0	    1.02170	    1.80721	 380.0	 5	    1.10000	    0.90000;
	367	 1	 65.17	 -51.5	 0.0	 4.85	 0	    1.09518	  -17.83315	 220.0	 5	    1.10000	    0.90000;
	401	 1	 56.5	 36.29	 0.0	 3.08	 0	    1.09463	   -5.25314	 220.0	 5	    1.10000	    0.90000;
	408	 1	 129.1	 7.4	 0.0	 0.04	 0	    1.06730	  -10.08285	 220.0	 5	    1.10000	    0.90000;
	410	 1	 170.89	 50.38	 0.0	 6.44	 0	    1.08430	  -14.43179	 220.0	 5	    1.10000	    0.90000;
	413	 2	 0.0	 0.0	 0.0	 0.0	 0	    1.07868	    1.38447	 220.0	 5	    1.10000	    0.90000;
	416	 1	 70.68	 13.5	 0.0	 6.96	 0	    1.09096	   -5.61629	 220.0	 5	    1.10000	    0.90000;
	426	 1	 123.1	 6.5	 0.0	 3.25	 0	    1.08070	   -9.53018	 220.0	 5	    1.10000	    0.90000;
	432	 1	 -0.0	 -0.0	 0.0	 68.517663	 0	    1.06355	   -0.06773	 380.0	 5	    1.10000	    0.90000;
	444	 1	 0.0	 -0.0	 0.0	 2.45	 0	    1.05831	  -10.64197	 220.0	 5	    1.10000	    0.90000;
	449	 1	 0.0	 0.0	 0.0	 29.42	 0	    1.02444	   -2.57439	 380.0	 5	    1.10000	    0.90000;
	453	 2	 0.0	 0.0	 0.0	 0.0	 0	    1.06629	   -1.08996	 380.0	 5	    1.10000	    0.90000;
	455	 1	 274.32	 5.66	 0.0	 13.24	 0	    1.06808	  -17.03058	 220.0	 5	    1.10000	    0.90000;
	490	 1	 20.52	 4.0	 0.0	 2.77	 0	    1.05707	  -16.88961	 220.0	 5	    1.10000	    0.90000;
	500	 1	 144.4	 35.5	 0.0	 7.66	 0	    1.08105	   -6.45201	 220.0	 5	    1.10000	    0.90000;
	502	 1	 -0.0	 0.0	 0.0	 1.96	 0	    1.08186	   -2.24815	 220.0	 5	    1.10000	    0.90000;
	506	 1	 -0.0	 0.0	 0.0	 0.4	 0	    1.07707	   -0.75454	 380.0	 5	    1.10000	    0.90000;
	513	 1	 57.46	 17.1	 0.0	 1.61	 0	    1.07692	   -3.10610	 220.0	 5	    1.10000	    0.90000;
	516	 2	 0.0	 0.0	 0.0	 0.0	 0	    1.08446	  -17.09856	 220.0	 5	    1.10000	    0.90000;
	520	 1	 118.5	 20.4	 0.0	 2.57	 0	    1.09558	   -8.77068	 220.0	 5	    1.10000	    0.90000;
	549	 1	 0.0	 -0.0	 0.0	 5.15	 0	    1.09994	   -4.39072	 220.0	 5	    1.10000	    0.90000;
	554	 1	 0.0	 -0.0	 0.0	 1.97	 0	    1.06794	  -13.21507	 220.0	 5	    1.10000	    0.90000;
	556	 1	 16.52	 9.0	 0.0	 1.17	 0	    1.05777	  -16.68726	 220.0	 5	    1.10000	    0.90000;
	561	 1	 0.0	 -0.0	 0.0	 0.32	 0	    1.09077	   -2.85733	 220.0	 5	    1.10000	    0.90000;
	564	 2	 0.0	 0.0	 0.0	 0.0	 0	    1.09409	  -28.85704	 220.0	 5	    1.10000	    0.90000;
	575	 1	 0.0	 -0.0	 0.0	 0.67	 0	    1.06702	  -10.15204	 220.0	 5	    1.10000	    0.90000;
	583	 2	 0.0	 0.0	 0.0	 0.0	 0	    1.09129	   -4.50431	 220.0	 5	    1.10000	    0.90000;
	594	 1	 67.57	 17.0	 0.0	 5.75	 0	    1.06043	   -0.93255	 220.0	 5	    1.10000	    0.90000;
	601	 1	 140.6	 42.6	 0.0	 5.71	 0	    1.09158	   -6.68708	 220.0	 5	    1.10000	    0.90000;
	604	 1	 33.24	 4.4	 0.0	 24.54	 0	    1.02467	   -8.06078	 380.0	 5	    1.10000	    0.90000;
	608	 1	 150.9	 10.4	 0.0	 4.77	 0	    1.09616	  -15.38553	 220.0	 5	    1.10000	    0.90000;
	609	 1	 -0.0	 -0.0	 0.0	 5.67	 0	    1.06924	   -8.16941	 220.0	 5	    1.10000	    0.90000;
	615	 2	 0.0	 0.0	 0.0	 0.0	 0	    1.09556	   -4.06063	 220.0	 5	    1.10000	    0.90000;
	616	 2	 0.0	 0.0	 0.0	 0.0	 0	    1.10000	   -5.09082	 220.0	 5	    1.10000	    0.90000;
	619	 1	 72.88	 14.4	 0.0	 2.96	 0	    1.09472	  -16.70238	 220.0	 5	    1.10000	    0.90000;
	639	 2	 0.0	 0.0	 0.0	 0.0	 0	    1.09639	  -20.27694	 220.0	 5	    1.10000	    0.90000;
	641	 1	 45.32	 18.5	 0.0	 0.74	 0	    1.09628	   -1.33204	 220.0	 5	    1.10000	    0.90000;
	658	 1	 258.4	 66.7	 0.0	 5.87	 0	    1.05676	   -7.63956	 220.0	 5	    1.10000	    0.90000;
	661	 1	 -0.0	 -0.0	 0.0	 0.6	 0	    1.03506	   -1.60643	 380.0	 5	    1.10000	    0.90000;
	666	 1	 -5.61	 -2.79	 0.0	 150.93	 0	    1.06024	   -3.19746	 380.0	 5	    1.10000	    0.90000;
	678	 1	 232.1	 89.8	 0.0	 0.09	 0	    1.08731	   -2.49383	 220.0	 5	    1.10000	    0.90000;
	682	 2	 0.0	 0.0	 0.0	 0.0	 0	    1.08572	   -3.73155	 220.0	 5	    1.10000	    0.90000;
	687	 1	 -0.0	 0.0	 0.0	 5.6	 0	    1.07195	   -4.88396	 220.0	 5	    1.10000	    0.90000;
	707	 1	 83.99	 21.2	 0.0	 5.36	 0	    1.08326	   -8.69863	 220.0	 5	    1.10000	    0.90000;
	718	 1	 135.11	 41.0	 0.0	 5.31	 0	    1.08560	   -8.80983	 220.0	 5	    1.10000	    0.90000;
	720	 1	 -0.0	 -0.0	 0.0	 23.554121	 0	    1.02665	  -18.07297	 380.0	 5	    1.10000	    0.90000;
	726	 1	 400.3	 189.9	 0.0	 0.53	 0	    1.06273	   -5.72531	 220.0	 5	    1.10000	    0.90000;
	742	 1	 0.0	 -0.0	 0.0	 2.83	 0	    1.07212	   -4.88547	 220.0	 5	    1.10000	    0.90000;
	747	 1	 69.58	 16.0	 0.0	 3.03	 0	    1.09843	  -20.49957	 220.0	 5	    1.10000	    0.90000;
	749	 2	 0.0	 0.0	 0.0	 0.0	 0	    1.09241	   -9.26380	 220.0	 5	    1.10000	    0.90000;
	750	 1	 -0.0	 -0.0	 0.0	 18.63	 0	    1.08935	  -15.52026	 220.0	 5	    1.10000	    0.90000;
	757	 2	 0.0	 0.0	 0.0	 0.0	 0	    1.05477	   -5.33703	 380.0	 5	    1.10000	    0.90000;
	766	 1	 -0.0	 0.0	 0.0	 7.85	 0	    1.08977	  -13.15766	 220.0	 5	    1.10000	    0.90000;
	769	 1	 152.57	 40.0	 0.0	 6.12	 0	    1.04008	   -9.07315	 220.0	 5	    1.10000	    0.90000;
	772	 1	 343.9	 141.9	 0.0	 5.55	 0	    1.07511	   -7.50075	 220.0	 5	    1.10000	    0.90000;
	776	 2	 0.0	 0.0	 0.0	 0.0	 0	    1.09014	   -5.37281	 220.0	 5	    1.10000	    0.90000;
	778	 2	 0.0	 0.0	 0.0	 0.0	 0	    1.09956	   -3.14917	 220.0	 5	    1.10000	    0.90000;
	789	 1	 -0.0	 -0.0	 0.0	 6.63	 0	    1.09188	   -5.78871	 220.0	 5	    1.10000	    0.90000;
	795	 2	 0.0	 0.0	 0.0	 0.0	 0	    1.10000	   -0.84872	 220.0	 5	    1.10000	    0.90000;
	800	 1	 50.56	 18.0	 0.0	 0.11	 0	    1.05782	  -10.63892	 220.0	 5	    1.10000	    0.90000;
	803	 2	 0.0	 0.0	 0.0	 0.0	 0	    1.10000	   -6.35556	 220.0	 5	    1.10000	    0.90000;
	804	 1	 -0.0	 -0.0	 0.0	 7.26	 0	    1.10000	   -4.16533	 220.0	 5	    1.10000	    0.90000;
	805	 1	 124.5	 29.6	 0.0	 15.4	 0	    1.09881	   -6.52612	 220.0	 5	    1.10000	    0.90000;
	809	 1	 0.0	 -0.0	 0.0	 58.088687	 0	    1.03617	   -1.49593	 380.0	 5	    1.10000	    0.90000;
	819	 1	 0.0	 -0.0	 0.0	 0.22	 0	    1.08791	   -2.79923	 220.0	 5	    1.10000	    0.90000;
	823	 2	 0.0	 0.0	 0.0	 0.0	 0	    1.02181	    0.60862	 380.0	 5	    1.10000	    0.90000;
	839	 1	 -0.0	 -0.0	 0.0	 8.17514	 0	    1.03435	   -2.20173	 380.0	 5	    1.10000	    0.90000;
	851	 2	 0.0	 0.0	 0.0	 0.0	 0	    1.09984	   -1.48458	 220.0	 5	    1.10000	    0.90000;
	858	 2	 0.0	 0.0	 0.0	 0.0	 0	    1.03683	   -0.94309	 380.0	 5	    1.10000	    0.90000;
	870	 1	 110.0	 3.4	 0.0	 11.95	 0	    1.08902	  -15.66420	 220.0	 5	    1.10000	    0.90000;
	871	 1	 108.89	 -21.76	 0.0	 3.72	 0	    1.08822	   -3.61440	 220.0	 5	    1.10000	    0.90000;
	883	 1	 192.5	 78.3	 0.0	 6.65	 0	    1.06508	   -6.59658	 220.0	 5	    1.10000	    0.90000;
	891	 2	 0.0	 0.0	 0.0	 0.0	 0	    1.08559	   -4.07327	 380.0	 5	    1.10000	    0.90000;
	892	 1	 -0.0	 -0.0	 0.0	 9.1	 0	    1.07968	  -18.59661	 220.0	 5	    1.10000	    0.90000;
	900	 1	 0.0	 0.0	 0.0	 0.15	 0	    1.07901	   -6.59346	 220.0	 5	    1.10000	    0.90000;
	903	 1	 82.69	 20.1	 0.0	 1.36	 0	    1.09840	  -20.52352	 220.0	 5	    1.10000	    0.90000;
	905	 1	 631.71	 -54.16	 0.0	 7.534129	 0	    1.07011	   -5.17372	 380.0	 5	    1.10000	    0.90000;
	907	 1	 -0.0	 -0.0	 0.0	 0.05	 0	    1.09234	   -3.69079	 220.0	 5	    1.10000	    0.90000;
	908	 1	 125.9	 -0.5	 0.0	 0.21	 0	    1.09305	   -1.53471	 220.0	 5	    1.10000	    0.90000;
	920	 1	 34.44	 8.5	 0.0	 1.11	 0	    1.08936	  -12.95879	 220.0	 5	    1.10000	    0.90000;
	923	 1	 62.07	 14.7	 0.0	 4.84	 0	    1.05633	  -16.97435	 220.0	 5	    1.10000	    0.90000;
	933	 1	 -0.0	 0.0	 0.0	 22.75	 0	    1.07663	   -8.90449	 220.0	 5	    1.10000	    0.90000;
	935	 1	 -0.0	 0.0	 0.0	 9.46	 0	    1.09673	  -15.98471	 220.0	 5	    1.10000	    0.90000;
	953	 1	 108.7	 -12.15	 0.0	 37.11	 0	    1.05714	   -4.68614	 380.0	 5	    1.10000	    0.90000;
	954	 1	 66.27	 13.6	 0.0	 0.67	 0	    1.09422	  -11.89882	 220.0	 5	    1.10000	    0.90000;
	960	 1	 -0.0	 -0.0	 0.0	 108.728602	 0	    1.07707	   -0.75453	 380.0	 5	    1.10000	    0.90000;
	964	 1	 88.5	 16.5	 0.0	 146.44	 0	    1.05845	   -4.28854	 380.0	 5	    1.10000	    0.90000;
	972	 2	 0.0	 0.0	 0.0	 0.0	 0	    1.06550	    1.00326	 380.0	 5	    1.30000	    0.70000;
	980	 1	 14.71	 4.6	 0.0	 7.88	 0	    1.09509	  -16.59778	 220.0	 5	    1.10000	    0.90000;
	1001	 2	 0.0	 0.0	 0.0	 0.0	 0	    1.08369	  -17.26219	 220.0	 5	    1.10000	    0.90000;
	1002	 2	 0.0	 0.0	 0.0	 0.0	 0	    1.08819	  -12.28384	 220.0	 5	    1.10000	    0.90000;
	1005	 1	 0.0	 0.0	 0.0	 0.81	 0	    1.09561	   -5.01482	 220.0	 5	    1.10000	    0.90000;
	1015	 1	 44.55	 0.0	 0.0	 4.78	 0	    1.09852	   -5.07697	 220.0	 5	    1.10000	    0.90000;
	1026	 1	 201.4	 53.0	 0.0	 9.67	 0	    1.07133	  -11.86919	 220.0	 5	    1.10000	    0.90000;
	1027	 1	 -5.91	 -2.33	 0.0	 30.393595	 0	    1.01160	  -11.86763	 380.0	 5	    1.10000	    0.90000;
	1033	 1	 26.33	 5.3	 0.0	 4.31	 0	    1.08917	  -15.59117	 220.0	 5	    1.10000	    0.90000;
	1035	 1	 382.5	 57.9	 0.0	 8.16	 0	    1.08391	  -18.93172	 220.0	 5	    1.10000	    0.90000;
	1039	 1	 34.64	 -0.0	 0.0	 0.91	 0	    1.08562	   -6.42028	 220.0	 5	    1.10000	    0.90000;
	1040	 1	 31.94	 8.8	 0.0	 3.79	 0	    1.09107	   -4.17209	 220.0	 5	    1.10000	    0.90000;
	1043	 2	 0.0	 0.0	 0.0	 0.0	 0	    1.07053	   -0.99986	 380.0	 5	    1.10000	    0.90000;
	1051	 1	 -0.0	 0.0	 0.0	 3.79	 0	    1.09614	   -5.01971	 220.0	 5	    1.10000	    0.90000;
	1077	 1	 -0.0	 0.0	 0.0	 0.1	 0	    1.05824	  -10.60644	 220.0	 5	    1.10000	    0.90000;
	1078	 1	 -0.0	 -0.0	 0.0	 4.74	 0	    1.09870	   -4.77607	 220.0	 5	    1.10000	    0.90000;
	1081	 1	 277.86	 58.95	 0.0	 182.880644	 0	    1.08091	   -3.07401	 380.0	 5	    1.10000	    0.90000;
	1083	 2	 0.0	 0.0	 0.0	 0.0	 0	    1.10000	   -4.90861	 220.0	 5	    1.10000	    0.90000;
	1090	 1	 56.06	 18.7	 0.0	 4.24	 0	    1.02730	  -16.91307	 220.0	 5	    1.10000	    0.90000;
	1093	 2	 0.0	 0.0	 0.0	 0.0	 0	    1.07328	   -0.79448	 380.0	 5	    1.10000	    0.90000;
	1096	 1	 0.0	 -0.0	 0.0	 0.16	 0	    1.08774	   -2.80931	 220.0	 5	    1.10000	    0.90000;
	1100	 2	 0.0	 0.0	 0.0	 0.0	 0	    1.08913	   -3.31439	 220.0	 5	    1.10000	    0.90000;
	1101	 1	 -0.0	 -0.0	 0.0	 2.05	 0	    1.08202	   -7.22828	 220.0	 5	    1.10000	    0.90000;
	1102	 2	 0.0	 0.0	 0.0	 0.0	 0	    1.07865	    1.37879	 220.0	 5	    1.10000	    0.90000;
	1105	 1	 29.83	 7.3	 0.0	 6.49	 0	    1.09926	  -20.44743	 220.0	 5	    1.10000	    0.90000;
	1111	 1	 0.0	 0.0	 0.0	 1.1	 0	    1.06057	   -0.93446	 220.0	 5	    1.10000	    0.90000;
	1129	 1	 190.47	 55.03	 0.0	 6.7	 0	    1.02065	  -17.72543	 220.0	 5	    1.10000	    0.90000;
	1136	 1	 16.22	 2.0	 0.0	 0.71	 0	    1.07795	  -11.13885	 220.0	 5	    1.10000	    0.90000;
	1137	 1	 -0.0	 -0.0	 0.0	 0.05	 0	    1.09627	  -15.94641	 220.0	 5	    1.10000	    0.90000;
	1146	 1	 32.84	 -0.0	 0.0	 1.41	 0	    1.06152	   -7.20204	 220.0	 5	    1.10000	    0.90000;
	1151	 1	 -0.0	 -0.0	 0.0	 18.82	 0	    1.08771	  -12.81224	 220.0	 5	    1.10000	    0.90000;
	1153	 1	 12.41	 3.9	 0.0	 2.23	 0	    1.05200	   -4.99308	 220.0	 5	    1.10000	    0.90000;
	1156	 1	 65.67	 24.0	 0.0	 9.95	 0	    1.05982	  -16.47128	 220.0	 5	    1.10000	    0.90000;
	1159	 1	 112.4	 13.0	 0.0	 3.99	 0	    1.06694	  -20.30341	 220.0	 5	    1.10000	    0.90000;
	1172	 1	 -0.0	 -0.0	 0.0	 2.3	 0	    1.09870	  -19.71063	 220.0	 5	    1.10000	    0.90000;
	1179	 1	 86.6	 23.4	 0.0	 0.39	 0	    1.04235	   -6.40109	 220.0	 5	    1.10000	    0.90000;
	1183	 1	 199.4	 -19.9	 0.0	 6.68	 0	    1.08639	  -17.79569	 220.0	 5	    1.10000	    0.90000;
	1187	 1	 67.57	 21.2	 0.0	 5.71	 0	    1.07053	   -6.42729	 220.0	 5	    1.10000	    0.90000;
	1188	 1	 30.93	 6.6	 0.0	 9.09	 0	    1.09582	   -5.82382	 220.0	 5	    1.10000	    0.90000;
	1194	 1	 129.6	 13.3	 0.0	 13.98	 0	    1.07258	   -4.13354	 380.0	 5	    1.10000	    0.90000;
	1198	 1	 0.0	 0.0	 0.0	 30.637696	 0	    1.04302	   -3.25970	 380.0	 5	    1.10000	    0.90000;
	1201	 1	 114.1	 23.5	 0.0	 1.08	 0	    1.09664	  -12.45161	 220.0	 5	    1.10000	    0.90000;
	1216	 1	 0.0	 0.0	 0.0	 4.93	 0	    1.05455	   -8.85084	 220.0	 5	    1.10000	    0.90000;
	1233	 1	 0.0	 -0.0	 0.0	 1.72	 0	    1.05973	  -16.49429	 220.0	 5	    1.10000	    0.90000;
	1234	 1	 71.78	 17.9	 0.0	 1.96	 0	    1.06411	   -9.59830	 220.0	 5	    1.10000	    0.90000;
	1237	 2	 0.0	 0.0	 0.0	 0.0	 0	    1.07668	    0.98648	 380.0	 5	    1.30000	    0.70000;
	1248	 1	 0.0	 0.0	 0.0	 1.17	 0	    1.07939	   -8.54703	 220.0	 5	    1.10000	    0.90000;
	1249	 1	 348.93	 26.47	 0.0	 9.36	 0	    1.06858	   -5.31260	 380.0	 5	    1.10000	    0.90000;
	1251	 2	 0.0	 0.0	 0.0	 0.0	 0	    1.07308	   -0.85346	 380.0	 5	    1.10000	    0.90000;
	1262	 1	 -0.0	 0.0	 0.0	 10.73	 0	    1.05984	  -16.06693	 220.0	 5	    1.10000	    0.90000;
	1265	 1	 173.0	 -21.3	 0.0	 5.93	 0	    1.08792	  -32.88502	 220.0	 5	    1.10000	    0.90000;
	1275	 1	 52.46	 2.9	 0.0	 0.35	 0	    1.07516	  -12.26920	 220.0	 5	    1.10000	    0.90000;
	1295	 2	 0.0	 0.0	 0.0	 0.0	 0	    1.09935	   -3.17955	 220.0	 5	    1.10000	    0.90000;
	1301	 1	 479.0	 99.2	 0.0	 10.68	 0	    1.07361	  -14.91205	 220.0	 5	    1.10000	    0.90000;
	1305	 1	 -0.0	 -0.0	 0.0	 4.34	 0	    1.09142	   -8.39809	 220.0	 5	    1.10000	    0.90000;
	1311	 1	 37.94	 15.2	 0.0	 35.31	 0	    1.05128	   -9.33712	 380.0	 5	    1.10000	    0.90000;
	1326	 1	 0.0	 0.0	 0.0	 0.98	 0	    1.07983	  -18.59761	 220.0	 5	    1.10000	    0.90000;
	1334	 1	 0.0	 0.0	 0.0	 0.59	 0	    1.06612	   -9.35404	 220.0	 5	    1.10000	    0.90000;
	1341	 2	 0.0	 0.0	 0.0	 0.0	 0	    1.08138	   -7.22413	 220.0	 5	    1.10000	    0.90000;
	1343	 1	 -0.0	 -0.0	 0.0	 58.3	 0	    1.04795	   -3.69265	 380.0	 5	    1.10000	    0.90000;
	1354	 2	 0.0	 0.0	 0.0	 0.0	 0	    1.08164	   -2.42850	 220.0	 5	    1.10000	    0.90000;
	1355	 1	 -3.29	 -1.32	 0.0	 190.704588	 0	    1.07902	   -2.90442	 380.0	 5	    1.10000	    0.90000;
	1364	 1	 40.85	 14.5	 0.0	 0.59	 0	    1.07512	   -8.95626	 220.0	 5	    1.10000	    0.90000;
	1380	 1	 145.2	 21.4	 0.0	 1.09	 0	    1.08131	  -14.82910	 220.0	 5	    1.10000	    0.90000;
	1394	 1	 30.93	 7.6	 0.0	 4.69	 0	    1.09915	  -20.43611	 220.0	 5	    1.10000	    0.90000;
	1397	 1	 0.0	 -0.0	 0.0	 2.14	 0	    1.09688	   -5.00107	 220.0	 5	    1.10000	    0.90000;
	1398	 1	 196.7	 44.2	 0.0	 0.1	 0	    1.06902	  -10.58426	 220.0	 5	    1.10000	    0.90000;
	1401	 1	 11.91	 2.9	 0.0	 5.27	 0	    1.07840	   -8.82347	 220.0	 5	    1.10000	    0.90000;
	1414	 1	 144.7	 20.3	 0.0	 6.35	 0	    1.05060	  -19.17325	 220.0	 5	    1.10000	    0.90000;
	1415	 1	 0.0	 -0.0	 0.0	 0.3	 0	    1.07990	   -4.02790	 220.0	 5	    1.10000	    0.90000;
	1422	 2	 0.0	 0.0	 0.0	 0.0	 0	    1.09998	   -6.24902	 220.0	 5	    1.10000	    0.90000;
	1435	 1	 -0.0	 0.0	 0.0	 3.85	 0	    1.05992	  -16.67642	 220.0	 5	    1.10000	    0.90000;
	1436	 2	 0.0	 0.0	 0.0	 0.0	 0	    1.09654	   -4.98637	 220.0	 5	    1.10000	    0.90000;
	1448	 1	 0.0	 0.0	 0.0	 9.49	 0	    1.07973	   -9.16270	 220.0	 5	    1.10000	    0.90000;
	1459	 1	 -0.0	 -0.0	 0.0	 3.38	 0	    1.09304	  -12.16574	 220.0	 5	    1.10000	    0.90000;
	1462	 1	 -0.0	 0.0	 0.0	 0.42	 0	    1.10000	   -6.24953	 220.0	 5	    1.10000	    0.90000;
	1465	 1	 -11.03	 -5.11	 0.0	 29.706803	 0	    1.00881	  -10.18140	 380.0	 5	    1.10000	    0.90000;
	1478	 2	 0.0	 0.0	 0.0	 0.0	 0	    1.08989	   -4.83334	 220.0	 5	    1.10000	    0.90000;
	1483	 1	 0.0	 0.0	 0.0	 4.86	 0	    1.07764	  -12.61873	 220.0	 5	    1.10000	    0.90000;
	1486	 1	 79.59	 18.8	 0.0	 6.78	 0	    1.05634	  -17.25132	 220.0	 5	    1.10000	    0.90000;
	1494	 1	 -1.85	 -1.63	 0.0	 31.424588	 0	    1.06985	   -3.08777	 380.0	 5	    1.10000	    0.90000;
	1502	 1	 -0.0	 0.0	 0.0	 37.116157	 0	    1.04828	  -11.98096	 380.0	 5	    1.10000	    0.90000;
	1504	 1	 0.0	 -0.0	 0.0	 1.84	 0	    1.05157	  -11.79615	 220.0	 5	    1.10000	    0.90000;
	1526	 1	 -10.86	 -5.93	 0.0	 12.54	 0	    1.06426	  -10.13943	 220.0	 5	    1.10000	    0.90000;
	1538	 1	 36.34	 15.2	 0.0	 0.3	 0	    1.06074	   -8.98833	 220.0	 5	    1.10000	    0.90000;
	1539	 1	 73.58	 3.24	 0.0	 52.35	 0	    1.09804	   -5.76257	 220.0	 5	    1.10000	    0.90000;
	1541	 1	 125.4	 45.8	 0.0	 0.0	 0	    1.10000	   -2.75423	 220.0	 5	    1.10000	    0.90000;
	1545	 1	 42.55	 8.2	 0.0	 2.06	 0	    1.06799	  -16.67350	 220.0	 5	    1.10000	    0.90000;
	1547	 1	 -0.0	 -0.0	 0.0	 1.02	 0	    1.08111	   -6.45255	 220.0	 5	    1.10000	    0.90000;
	1551	 1	 -0.0	 -0.0	 0.0	 7.99	 0	    1.06657	  -14.58806	 220.0	 5	    1.10000	    0.90000;
	1552	 1	 20.42	 8.1	 0.0	 35.15	 0	    1.07354	   -4.77251	 380.0	 5	    1.10000	    0.90000;
	1554	 1	 0.0	 -0.0	 0.0	 4.96	 0	    1.05065	  -12.65765	 220.0	 5	    1.10000	    0.90000;
	1556	 1	 -0.0	 -0.0	 0.0	 0.95	 0	    1.09674	   -4.06971	 220.0	 5	    1.10000	    0.90000;
	1562	 1	 77.39	 24.1	 0.0	 2.67	 0	    1.09048	  -17.25238	 220.0	 5	    1.10000	    0.90000;
	1566	 1	 156.9	 -4.0	 0.0	 2.48	 0	    1.06212	  -17.91880	 220.0	 5	    1.10000	    0.90000;
	1568	 1	 69.08	 21.5	 0.0	 1.65	 0	    1.09480	  -16.61268	 220.0	 5	    1.10000	    0.90000;
	1578	 1	 0.0	 -0.0	 0.0	 1.38	 0	    1.06300	  -10.98656	 220.0	 5	    1.10000	    0.90000;
	1584	 1	 0.0	 -0.0	 0.0	 3.24	 0	    1.09487	   -5.23972	 220.0	 5	    1.10000	    0.90000;
	1592	 1	 28.33	 44.8	 0.0	 0.51	 0	    1.06076	   -3.63159	 220.0	 5	    1.10000	    0.90000;
	1595	 1	 71.77	 13.57	 0.0	 3.84	 0	    1.04406	  -20.48854	 220.0	 5	    1.10000	    0.90000;
	1604	 2	 0.0	 0.0	 0.0	 0.0	 0	    1.08210	   -2.20020	 220.0	 5	    1.10000	    0.90000;
	1605	 1	 -0.0	 0.0	 0.0	 0.05	 0	    1.09974	  -10.02580	 220.0	 5	    1.10000	    0.90000;
	1607	 1	 73.78	 -0.0	 0.0	 2.69	 0	    1.06016	   -3.29219	 380.0	 5	    1.10000	    0.90000;
	1609	 1	 0.0	 0.0	 0.0	 6.55	 0	    1.09973	  -11.12423	 220.0	 5	    1.10000	    0.90000;
	1625	 1	 73.18	 22.3	 0.0	 8.77	 0	    1.08964	  -13.15599	 220.0	 5	    1.10000	    0.90000;
	1629	 1	 41.95	 8.5	 0.0	 1.05	 0	    1.06653	   -9.25745	 220.0	 5	    1.10000	    0.90000;
	1642	 2	 0.0	 0.0	 0.0	 0.0	 0	    1.03513	   -1.31885	 380.0	 5	    1.10000	    0.90000;
	1643	 1	 95.71	 25.9	 0.0	 11.38	 0	    1.09053	  -17.28309	 220.0	 5	    1.10000	    0.90000;
	1644	 1	 449.56	 245.72	 0.0	 94.55	 0	    1.05931	   -0.82084	 380.0	 5	    1.10000	    0.90000;
	1662	 1	 3.67	 -1.86	 0.0	 3.89	 0	    1.09006	  -12.98883	 220.0	 5	    1.10000	    0.90000;
	1672	 1	 -28.13	 -0.83	 0.0	 0.1	 0	    1.09694	   -4.05740	 220.0	 5	    1.10000	    0.90000;
	1680	 2	 0.0	 0.0	 0.0	 0.0	 0	    1.02185	    0.76806	 380.0	 5	    1.10000	    0.90000;
	1692	 1	 83.19	 25.8	 0.0	 0.33	 0	    1.06825	   -9.52925	 220.0	 5	    1.10000	    0.90000;
	1704	 1	 62.16	 8.0	 0.0	 2.99	 0	    1.07880	   -8.89776	 220.0	 5	    1.10000	    0.90000;
	1708	 2	 0.0	 0.0	 0.0	 0.0	 0	    1.07338	   -2.95743	 380.0	 5	    1.10000	    0.90000;
	1709	 1	 -15.38	 -4.94	 0.0	 33.241519	 0	    1.04588	   -7.87309	 380.0	 5	    1.10000	    0.90000;
	1711	 1	 25.13	 -61.6	 0.0	 3.68	 0	    1.09822	  -20.25171	 220.0	 5	    1.10000	    0.90000;
	1721	 2	 0.0	 0.0	 0.0	 0.0	 0	    1.08390	   -3.12000	 220.0	 5	    1.10000	    0.90000;
	1730	 1	 -17.18	 -4.35	 0.0	 44.419365	 0	    1.02456	   -7.42532	 380.0	 5	    1.10000	    0.90000;
	1742	 1	 0.0	 0.0	 0.0	 6.68	 0	    1.05569	  -16.56196	 220.0	 5	    1.10000	    0.90000;
	1746	 1	 -0.0	 0.0	 0.0	 1.86	 0	    1.09682	  -15.63557	 220.0	 5	    1.10000	    0.90000;
	1750	 1	 58.46	 6.6	 0.0	 10.13	 0	    1.07046	  -12.68946	 220.0	 5	    1.10000	    0.90000;
	1754	 2	 0.0	 0.0	 0.0	 0.0	 0	    1.05659	   -5.03540	 380.0	 5	    1.10000	    0.90000;
	1758	 1	 0.0	 -0.0	 0.0	 121.29	 0	    1.01890	   -1.64975	 380.0	 5	    1.10000	    0.90000;
	1763	 1	 -0.0	 -0.0	 0.0	 0.28	 0	    1.05302	  -15.84661	 380.0	 5	    1.10000	    0.90000;
	1767	 1	 333.5	 -1.4	 0.0	 8.37	 0	    1.06563	  -28.80235	 220.0	 5	    1.10000	    0.90000;
	1768	 1	 73.98	 22.5	 0.0	 1.15	 0	    1.07524	   -8.98333	 220.0	 5	    1.10000	    0.90000;
	1775	 1	 -0.0	 0.0	 0.0	 1.64	 0	    1.09675	   -7.64072	 220.0	 5	    1.10000	    0.90000;
	1794	 2	 0.0	 0.0	 0.0	 0.0	 0	    1.02007	    1.06567	 380.0	 5	    1.10000	    0.90000;
	1798	 1	 -0.63	 -0.83	 0.0	 22.810288	 0	    1.00886	   -6.81996	 380.0	 5	    1.10000	    0.90000;
	1803	 1	 -0.0	 -0.0	 0.0	 0.05	 0	    1.06012	  -16.06896	 220.0	 5	    1.10000	    0.90000;
	1808	 2	 0.0	 0.0	 0.0	 0.0	 0	    1.08552	   -2.98454	 220.0	 5	    1.10000	    0.90000;
	1813	 1	 88.92	 19.79	 0.0	 2.81	 0	    1.06594	   -4.99651	 220.0	 5	    1.10000	    0.90000;
	1817	 1	 108.91	 33.7	 0.0	 56.24	 0	    1.06020	   -4.21248	 380.0	 5	    1.10000	    0.90000;
	1833	 1	 0.0	 0.0	 0.0	 3.33	 0	    1.06106	  -15.25329	 220.0	 5	    1.10000	    0.90000;
	1838	 1	 0.0	 -0.0	 0.0	 3.02	 0	    1.06191	  -15.17356	 220.0	 5	    1.10000	    0.90000;
	1844	 1	 -28.14	 -0.76	 0.0	 0.1	 0	    1.09696	   -4.05688	 220.0	 5	    1.10000	    0.90000;
	1851	 2	 0.0	 0.0	 0.0	 0.0	 0	    1.09655	   -4.98660	 220.0	 5	    1.10000	    0.90000;
	1852	 2	 0.0	 0.0	 0.0	 0.0	 0	    1.09977	   -5.74314	 220.0	 5	    1.10000	    0.90000;
	1857	 1	 0.0	 0.0	 0.0	 1.53	 0	    1.09488	   -3.15135	 220.0	 5	    1.10000	    0.90000;
	1860	 1	 88.8	 -3.2	 0.0	 13.63	 0	    1.10000	   -9.13015	 220.0	 5	    1.10000	    0.90000;
	1866	 1	 209.2	 23.5	 0.0	 6.44	 0	    1.06806	  -12.41597	 220.0	 5	    1.10000	    0.90000;
	1868	 1	 11.71	 3.8	 0.0	 2.96	 0	    1.09782	   -2.14141	 220.0	 5	    1.10000	    0.90000;
	1876	 1	 -0.0	 -0.0	 0.0	 6.273568	 0	    1.06627	   -4.06795	 380.0	 5	    1.10000	    0.90000;
	1883	 1	 27.33	 5.0	 0.0	 6.77	 0	    1.07176	   -9.31038	 220.0	 5	    1.10000	    0.90000;
	1888	 2	 0.0	 0.0	 0.0	 0.0	 0	    1.06905	   -3.74604	 220.0	 5	    1.10000	    0.90000;
	1895	 1	 20.82	 -0.0	 0.0	 0.14	 0	    1.07173	    1.83388	 220.0	 5	    1.10000	    0.90000;
	1896	 1	 -0.0	 -0.0	 0.0	 1.18	 0	    1.05053	   -2.97024	 380.0	 5	    1.10000	    0.90000;
	1910	 1	 -0.0	 0.0	 0.0	 2.68	 0	    1.09961	   -3.14994	 220.0	 5	    1.10000	    0.90000;
	1914	 2	 0.0	 0.0	 0.0	 0.0	 0	    1.09734	   -6.18184	 220.0	 5	    1.10000	    0.90000;
	1917	 1	 197.5	 -31.0	 0.0	 17.34	 0	    1.09812	  -16.59179	 220.0	 5	    1.10000	    0.90000;
	1923	 1	 192.11	 45.5	 0.0	 68.04	 0	    1.01079	   -7.56993	 380.0	 5	    1.10000	    0.90000;
	1940	 1	 0.0	 0.0	 0.0	 1.19	 0	    1.07453	   -8.08017	 220.0	 5	    1.10000	    0.90000;
	1959	 2	 0.0	 0.0	 0.0	 0.0	 0	    1.09556	   -4.06063	 220.0	 5	    1.10000	    0.90000;
	1965	 1	 248.7	 8.1	 0.0	 12.46	 0	    1.08846	  -32.47966	 220.0	 5	    1.10000	    0.90000;
	1973	 1	 210.1	 66.2	 0.0	 59.36	 0	    1.09923	  -20.42267	 220.0	 5	    1.10000	    0.90000;
	1979	 1	 0.0	 0.0	 0.0	 0.14	 0	    1.08369	  -17.26220	 220.0	 5	    1.10000	    0.90000;
	1980	 1	 177.3	 36.4	 0.0	 0.7	 0	    1.08500	  -13.55905	 220.0	 5	    1.10000	    0.90000;
	1998	 1	 25.73	 7.3	 0.0	 2.82	 0	    1.06750	  -13.58223	 220.0	 5	    1.10000	    0.90000;
	2012	 1	 41.45	 4.9	 0.0	 18.43	 0	    1.07220	  -12.20456	 220.0	 5	    1.10000	    0.90000;
	2019	 1	 72.08	 21.3	 0.0	 7.19	 0	    1.08851	  -13.24428	 220.0	 5	    1.10000	    0.90000;
	2020	 1	 0.0	 0.0	 0.0	 9.98	 0	    1.09861	  -15.64294	 220.0	 5	    1.10000	    0.90000;
	2021	 1	 3.9	 1.0	 0.0	 3.81	 0	    1.09770	  -16.43839	 220.0	 5	    1.10000	    0.90000;
	2035	 2	 0.0	 0.0	 0.0	 0.0	 0	    1.03845	   -0.98383	 380.0	 5	    1.10000	    0.90000;
	2042	 1	 14.02	 6.5	 0.0	 0.09	 0	    1.06057	   -5.77753	 220.0	 5	    1.10000	    0.90000;
	2043	 1	 3.2	 1.7	 0.0	 0.05	 0	    1.09996	   -6.24990	 220.0	 5	    1.10000	    0.90000;
	2044	 1	 0.0	 0.0	 0.0	 0.14	 0	    1.08824	   -4.76682	 220.0	 5	    1.10000	    0.90000;
	2050	 2	 0.0	 0.0	 0.0	 0.0	 0	    1.06900	    0.79053	 380.0	 5	    1.10000	    0.90000;
	2056	 1	 -0.0	 0.0	 0.0	 7.338808	 0	    1.07339	   -2.51513	 380.0	 5	    1.10000	    0.90000;
	2057	 1	 120.2	 20.5	 0.0	 19.94	 0	    1.09529	  -21.11074	 220.0	 5	    1.10000	    0.90000;
	2072	 1	 101.2	 2.1	 0.0	 38.43	 0	    1.08140	   -3.15116	 380.0	 5	    1.10000	    0.90000;
	2078	 1	 77.19	 18.6	 0.0	 2.22	 0	    1.07885	   -6.94932	 220.0	 5	    1.10000	    0.90000;
	2079	 1	 0.0	 -0.0	 0.0	 13.94	 0	    1.08896	   -6.42894	 220.0	 5	    1.10000	    0.90000;
	2083	 1	 121.4	 20.2	 0.0	 16.61	 0	    1.07815	  -11.08713	 220.0	 5	    1.10000	    0.90000;
	2085	 2	 0.0	 0.0	 0.0	 0.0	 0	    1.03532	   -1.54516	 380.0	 5	    1.10000	    0.90000;
	2088	 1	 -0.0	 0.0	 0.0	 6.02	 0	    1.09537	   -6.93154	 220.0	 5	    1.10000	    0.90000;
	2089	 1	 199.86	 56.93	 0.0	 46.83	 0	    1.09131	  -17.17558	 220.0	 5	    1.10000	    0.90000;
	2093	 1	 -5.64	 -2.84	 0.0	 34.582195	 0	    1.05081	   -4.16490	 380.0	 5	    1.10000	    0.90000;
	2101	 1	 -0.0	 -0.0	 0.0	 38.32	 0	    1.07412	   -1.93216	 380.0	 5	    1.10000	    0.90000;