%%%%%%%%%%%%%%%%%%%%%%%%%%%%%%%%%%%%%%%%%%%%%%%%%%%%%%%%%%%%%%%%%%%%%%%%%%%
%%%%                                                                  %%%%%
%%%%    IEEE PES Power Grid Library - Optimal Power Flow - v17.07     %%%%%
%%%%          (https://github.com/power-grid-lib/pglib-opf)           %%%%%
%%%%             Benchmark Group - Small Angle Difference             %%%%%
%%%%                         27 - June - 2017                         %%%%%
%%%%                                                                  %%%%%
%%%%%%%%%%%%%%%%%%%%%%%%%%%%%%%%%%%%%%%%%%%%%%%%%%%%%%%%%%%%%%%%%%%%%%%%%%%
function mpc = pglib_opf_case3375wp_mp__sad
mpc.version = '2';
mpc.baseMVA = 100.0;

%% area data
%	area	refbus
mpc.areas = [
	1	 1;
];

%% bus data
%	bus_i	type	Pd	Qd	Gs	Bs	area	Vm	Va	baseKV	zone	Vmax	Vmin
mpc.bus = [
	10000	 1	 0.0	 0.0	 0.0	 0.0	 0	    1.03080	  -11.13813	 400.0	 0	    1.05000	    0.95000;
	10001	 1	 0.0	 0.0	 0.0	 0.0	 0	    1.01242	  -13.90159	 400.0	 0	    1.05000	    0.95000;
	10002	 1	 0.0	 0.0	 0.0	 0.0	 0	    1.09220	  -16.30137	 220.0	 0	    1.11000	    0.95000;
	10003	 1	 0.0	 0.0	 0.0	 0.0	 0	    1.01171	  -17.09633	 400.0	 0	    1.05000	    0.95000;
	10004	 1	 0.0	 0.0	 0.0	 0.0	 0	    1.04266	  -13.61298	 400.0	 0	    1.05000	    0.95000;
	10005	 1	 0.0	 0.0	 0.0	 0.0	 0	    1.02379	  -15.72303	 400.0	 0	    1.05000	    0.95000;
	10006	 1	 0.0	 0.0	 0.0	 0.0	 0	    1.03792	   -9.00485	 400.0	 0	    1.05000	    0.95000;
	10007	 1	 0.0	 0.0	 0.0	 0.0	 0	    1.09325	  -15.19949	 220.0	 0	    1.11000	    0.95000;
	10008	 1	 0.0	 0.0	 0.0	 0.0	 0	    1.07112	  -17.29091	 220.0	 0	    1.11000	    0.95000;
	10009	 1	 0.0	 0.0	 0.0	 0.0	 0	    1.02181	  -16.46637	 400.0	 0	    1.05000	    0.95000;
	10010	 1	 0.0	 0.0	 0.0	 0.0	 0	    1.04971	  -11.41531	 400.0	 0	    1.05000	    0.95000;
	10011	 1	 0.0	 0.0	 0.0	 0.0	 0	    1.02186	  -17.92843	 400.0	 0	    1.05000	    0.95000;
	10012	 1	 0.0	 0.0	 0.0	 0.0	 0	    1.02186	  -17.92843	 400.0	 0	    1.05000	    0.95000;
	10013	 1	 0.0	 0.0	 0.0	 0.0	 0	    1.04571	  -11.84934	 400.0	 0	    1.05000	    0.95000;
	10014	 1	 0.0	 0.0	 0.0	 0.0	 0	    1.04593	  -11.88090	 400.0	 0	    1.05000	    0.95000;
	10015	 1	 0.0	 0.0	 0.0	 0.0	 0	    1.04038	  -17.77761	 400.0	 0	    1.05000	    0.95000;
	10016	 1	 0.0	 0.0	 0.0	 0.0	 0	    1.04590	  -11.76831	 400.0	 0	    1.05000	    0.95000;
	10017	 1	 0.0	 0.0	 0.0	 0.0	 0	    1.04583	  -11.77241	 400.0	 0	    1.05000	    0.95000;
	10018	 1	 0.0	 0.0	 0.0	 0.0	 0	    1.04581	  -11.76516	 400.0	 0	    1.05000	    0.95000;
	10019	 1	 0.0	 0.0	 0.0	 0.0	 0	    1.04594	  -11.88093	 400.0	 0	    1.05000	    0.95000;
	10020	 1	 0.0	 0.0	 0.0	 0.0	 0	    1.01092	  -12.84428	 400.0	 0	    1.05000	    0.95000;
	10021	 1	 0.0	 0.0	 0.0	 0.0	 0	    1.09633	  -16.06524	 220.0	 0	    1.11000	    0.95000;
	10022	 1	 0.0	 0.0	 0.0	 0.0	 0	    1.09226	  -16.43247	 220.0	 0	    1.11000	    0.95000;
	10023	 1	 0.0	 0.0	 0.0	 0.0	 0	    1.02547	  -10.36792	 400.0	 0	    1.05000	    0.95000;
	10024	 1	 0.0	 0.0	 0.0	 0.0	 0	    1.02527	  -10.47166	 400.0	 0	    1.05000	    0.95000;
	10025	 1	 0.0	 0.0	 0.0	 0.0	 0	    1.02543	  -10.38781	 400.0	 0	    1.05000	    0.95000;
	10026	 1	 0.0	 0.0	 0.0	 0.0	 0	    1.03172	   -7.01142	 400.0	 0	    1.05000	    0.95000;
	10027	 1	 0.0	 0.0	 0.0	 0.0	 0	    1.03205	   -6.73370	 400.0	 0	    1.05000	    0.95000;
	10028	 1	 0.0	 0.0	 0.0	 0.0	 0	    1.03198	   -6.53147	 400.0	 0	    1.05000	    0.95000;
	10029	 1	 0.0	 0.0	 0.0	 0.0	 0	    1.05000	  -10.84055	 400.0	 0	    1.05000	    0.95000;
	10030	 1	 0.0	 0.0	 0.0	 0.0	 0	    1.05000	  -10.83533	 400.0	 0	    1.05000	    0.95000;
	10031	 1	 0.0	 0.0	 0.0	 0.0	 0	    1.10382	  -10.96001	 220.0	 0	    1.11000	    0.95000;
	10032	 1	 0.0	 0.0	 0.0	 0.0	 0	    1.03186	   -7.02740	 400.0	 0	    1.05000	    0.95000;
	10033	 1	 0.0	 0.0	 0.0	 0.0	 0	    1.03183	   -7.02720	 400.0	 0	    1.05000	    0.95000;
	10034	 1	 0.0	 0.0	 0.0	 0.0	 0	    1.03993	  -13.62546	 400.0	 0	    1.05000	    0.95000;
	10035	 1	 0.0	 0.0	 0.0	 0.0	 0	    1.07906	  -11.53523	 220.0	 0	    1.11000	    0.95000;
	10036	 1	 0.0	 0.0	 0.0	 0.0	 0	    1.07916	  -11.54307	 220.0	 0	    1.11000	    0.95000;
	10037	 1	 0.0	 0.0	 0.0	 0.0	 0	    1.03207	   -7.12870	 400.0	 0	    1.05000	    0.95000;
	10038	 1	 0.0	 0.0	 0.0	 0.0	 0	    1.03212	   -7.13769	 400.0	 0	    1.05000	    0.95000;
	10039	 1	 0.0	 0.0	 0.0	 0.0	 0	    1.03338	   -7.21598	 400.0	 0	    1.05000	    0.95000;
	10040	 1	 0.0	 0.0	 0.0	 0.0	 0	    1.02079	  -13.26319	 400.0	 0	    1.05000	    0.95000;
	10041	 1	 0.0	 0.0	 0.0	 0.0	 0	    1.04965	  -10.97221	 400.0	 0	    1.05000	    0.95000;
	10042	 1	 0.0	 0.0	 0.0	 0.0	 0	    1.03108	  -18.40813	 400.0	 0	    1.05000	    0.95000;
	10043	 1	 0.0	 0.0	 0.0	 0.0	 0	    1.08129	  -14.31820	 220.0	 0	    1.11000	    0.95000;
	10044	 1	 0.0	 0.0	 0.0	 0.0	 0	    1.09260	  -13.55340	 220.0	 0	    1.11000	    0.95000;
	10045	 1	 0.0	 0.0	 0.0	 0.0	 0	    1.07118	  -18.18131	 220.0	 0	    1.11000	    0.95000;
	10046	 1	 0.0	 0.0	 0.0	 0.0	 0	    1.09222	  -16.43198	 220.0	 0	    1.11000	    0.95000;
	10047	 1	 0.0	 0.0	 0.0	 0.0	 0	    1.02153	  -19.16439	 400.0	 0	    1.05000	    0.95000;
	10048	 1	 0.0	 0.0	 0.0	 0.0	 0	    1.02939	  -11.51786	 400.0	 0	    1.05000	    0.95000;
	10049	 1	 0.0	 0.0	 0.0	 0.0	 0	    1.03819	  -11.91465	 400.0	 0	    1.05000	    0.95000;
	10050	 1	 0.0	 0.0	 0.0	 0.0	 0	    1.04965	  -10.97221	 400.0	 0	    1.05000	    0.95000;
	10051	 1	 0.0	 0.0	 0.0	 0.0	 0	    1.07225	  -18.07299	 220.0	 0	    1.11000	    0.95000;
	10052	 1	 0.0	 0.0	 0.0	 0.0	 0	    1.03741	  -16.22417	 400.0	 0	    1.05000	    0.95000;
	10053	 1	 0.0	 0.0	 0.0	 0.0	 0	    1.10301	  -10.39348	 220.0	 0	    1.11000	    0.95000;
	10054	 1	 0.0	 0.0	 0.0	 0.0	 0	    1.10301	  -10.39348	 220.0	 0	    1.11000	    0.95000;
	10055	 1	 0.0	 0.0	 0.0	 0.0	 0	    1.09258	  -14.25116	 220.0	 0	    1.11000	    0.95000;
	10056	 1	 0.0	 0.0	 0.0	 0.0	 0	    1.03844	   -9.28178	 400.0	 0	    1.05000	    0.95000;
	10057	 1	 0.0	 0.0	 0.0	 0.0	 0	    1.03406	   -8.22956	 400.0	 0	    1.05000	    0.95000;
	10058	 1	 0.0	 0.0	 0.0	 0.0	 0	    1.06533	  -16.57678	 220.0	 0	    1.11000	    0.95000;
	10059	 1	 0.0	 0.0	 0.0	 0.0	 0	    1.04184	  -15.68732	 400.0	 0	    1.05000	    0.95000;
	10060	 1	 0.0	 0.0	 0.0	 0.0	 0	    1.03209	   -7.13319	 400.0	 0	    1.05000	    0.95000;
	10061	 1	 0.0	 0.0	 0.0	 0.0	 0	    1.03844	   -9.28178	 400.0	 0	    1.05000	    0.95000;
	10062	 1	 0.0	 0.0	 0.0	 0.0	 0	    1.03106	  -15.02196	 400.0	 0	    1.05000	    0.95000;
	10063	 1	 0.0	 0.0	 0.0	 0.0	 0	    1.04593	  -11.88089	 400.0	 0	    1.05000	    0.95000;
	10064	 1	 0.0	 0.0	 0.0	 0.0	 0	    1.07294	  -16.01461	 220.0	 0	    1.11000	    0.95000;
	10065	 1	 0.0	 0.0	 0.0	 0.0	 0	    1.04727	  -13.24159	 400.0	 0	    1.05000	    0.95000;
	10066	 1	 0.0	 0.0	 0.0	 0.0	 0	    1.04972	  -12.00646	 400.0	 0	    1.05000	    0.95000;
	10067	 1	 0.0	 0.0	 0.0	 0.0	 0	    1.07382	  -15.14867	 220.0	 0	    1.11000	    0.95000;
	10068	 1	 0.0	 0.0	 0.0	 0.0	 0	    1.04999	  -12.86856	 400.0	 0	    1.05000	    0.95000;
	10069	 1	 0.0	 0.0	 0.0	 0.0	 0	    1.07961	  -18.64678	 220.0	 0	    1.11000	    0.95000;
	10070	 1	 0.0	 0.0	 0.0	 0.0	 0	    1.02181	  -17.92818	 400.0	 0	    1.05000	    0.95000;
	10071	 2	 16.0	 8.0	 0.0	 0.0	 0	    1.10714	  -14.74961	 220.0	 0	    1.11000	    0.95000;
	10072	 1	 0.0	 0.0	 0.0	 0.0	 0	    1.10229	  -11.12219	 220.0	 0	    1.11000	    0.95000;
	10073	 1	 0.0	 0.0	 0.0	 0.0	 1	    1.08105	  -12.53445	 220.0	 0	    1.11000	    0.95000;
	10074	 1	 0.0	 0.0	 0.0	 0.0	 0	    1.08098	  -12.51797	 220.0	 0	    1.11000	    0.95000;
	10075	 1	 0.0	 0.0	 0.0	 0.0	 0	    1.08252	  -13.38407	 220.0	 0	    1.11000	    0.95000;
	10076	 1	 0.0	 0.0	 0.0	 0.0	 0	    1.02526	  -10.47160	 400.0	 0	    1.05000	    0.95000;
	10077	 1	 0.0	 0.0	 0.0	 0.0	 0	    1.02526	  -10.47160	 400.0	 0	    1.05000	    0.95000;
	10078	 1	 305.5	 -14.0	 0.0	 0.0	 0	    1.02689	   -7.25601	 400.0	 0	    1.05000	    0.95000;
	10079	 2	 -1529.6	 4542.9	 0.0	 0.0	 0	    0.99511	    1.13540	 400.0	 0	    1.05000	    0.95000;
	10080	 2	 -159.1	 -181.0	 0.0	 0.0	 0	    1.03351	   -3.68411	 400.0	 0	    1.05000	    0.95000;
	10081	 1	 -1078.3	 -374.1	 0.0	 0.0	 0	    1.02815	    0.24330	 400.0	 0	    1.05000	    0.95000;
	10082	 1	 943.2	 310.2	 0.0	 0.0	 0	    0.99656	   -3.41015	 400.0	 0	    1.05000	    0.95000;
	10083	 1	 97.0	 26.0	 0.0	 0.0	 0	    1.02343	   -3.84859	 400.0	 0	    1.05000	    0.95000;
	10084	 1	 0.6	 160.0	 0.0	 0.0	 0	    1.02415	   -3.63583	 400.0	 0	    1.05000	    0.95000;
	10085	 1	 161.6	 183.6	 0.0	 0.0	 0	    1.02318	   -3.79694	 400.0	 0	    1.05000	    0.95000;
	10086	 1	 288.6	 221.6	 0.0	 0.0	 0	    1.02317	   -3.79968	 400.0	 0	    1.05000	    0.95000;
	10087	 1	 0.0	 0.0	 0.0	 0.0	 0	    1.02513	   -3.50622	 400.0	 0	    1.05000	    0.95000;
	10088	 1	 0.0	 0.0	 0.0	 0.0	 0	    1.07259	   -3.99442	 220.0	 0	    1.11000	    0.95000;
	10089	 1	 0.0	 0.0	 0.0	 0.0	 0	    1.07030	   -4.12315	 220.0	 0	    1.11000	    0.95000;
	10090	 2	 274.4	 279.6	 0.0	 0.0	 0	    1.02351	   -3.85776	 400.0	 0	    1.05000	    0.95000;
	10091	 1	 94.2	 111.8	 0.0	 0.0	 0	    1.02386	   -3.92579	 400.0	 0	    1.05000	    0.95000;
	10092	 1	 0.0	 0.0	 0.0	 0.0	 0	    1.06906	   -4.22425	 220.0	 0	    1.11000	    0.95000;
	10093	 1	 0.0	 0.0	 0.0	 0.0	 0	    1.07177	   -4.07485	 220.0	 0	    1.11000	    0.95000;
	10094	 2	 0.0	 0.0	 0.0	 0.0	 0	    0.99530	   -3.25836	 400.0	 0	    1.05000	    0.95000;
	10095	 2	 4.4	 -2590.1	 0.0	 0.0	 0	    1.05000	   -4.99970	 400.0	 0	    1.05000	    0.95000;
	10096	 1	 488.0	 79.1	 0.0	 0.0	 0	    1.00211	   -5.02709	 400.0	 0	    1.05000	    0.95000;
	10097	 1	 601.0	 147.9	 0.0	 0.0	 0	    1.01855	   -5.02415	 400.0	 0	    1.05000	    0.95000;
	10098	 1	 527.0	 265.1	 0.0	 0.0	 0	    1.00302	   -4.17092	 400.0	 0	    1.05000	    0.95000;
	10099	 1	 0.0	 0.0	 0.0	 0.0	 0	    1.00533	   -1.40901	 400.0	 0	    1.05000	    0.95000;
	10100	 2	 0.0	 0.0	 0.0	 0.0	 0	    1.03812	   -0.04172	 400.0	 0	    1.05000	    0.95000;
	10101	 1	 0.0	 0.0	 0.0	 0.0	 0	    1.01560	  -14.12441	 220.0	 0	    1.11000	    0.95000;
	10102	 1	 120.0	 25.0	 0.0	 0.0	 0	    1.04580	   -8.31780	 220.0	 0	    1.11000	    0.95000;
	10103	 1	 0.0	 0.0	 0.0	 0.0	 0	    0.99144	   -1.83947	 400.0	 0	    1.05000	    0.95000;
	10104	 2	 200.2	 48.7	 0.0	 0.0	 0	    0.97244	   -0.31116	 400.0	 0	    1.05000	    0.95000;
	10105	 1	 0.0	 0.0	 0.0	 0.0	 0	    1.06147	   -6.88128	 220.0	 0	    1.11000	    0.95000;
	10106	 1	 0.0	 0.0	 0.0	 0.0	 0	    1.03236	   -3.82775	 400.0	 0	    1.05000	    0.95000;
	10107	 1	 0.0	 0.0	 0.0	 0.0	 0	    1.03184	   -1.69788	 400.0	 0	    1.05000	    0.95000;
	10108	 1	 0.0	 0.0	 0.0	 0.0	 0	    1.03245	   -1.37633	 400.0	 0	    1.05000	    0.95000;
	10109	 1	 0.0	 0.0	 0.0	 0.0	 0	    1.03181	   -1.61975	 400.0	 0	    1.05000	    0.95000;
	10110	 1	 0.0	 0.0	 0.0	 0.0	 0	    1.03244	   -1.29349	 400.0	 0	    1.05000	    0.95000;
	10111	 1	 0.0	 0.0	 0.0	 0.0	 0	    1.02187	   -0.69738	 400.0	 0	    1.05000	    0.95000;
	10112	 1	 0.0	 0.0	 0.0	 0.0	 0	    1.10809	   -3.99713	 220.0	 0	    1.11000	    0.95000;
	10113	 1	 0.0	 0.0	 0.0	 0.0	 0	    1.01886	   -1.52551	 400.0	 0	    1.05000	    0.95000;
	10114	 1	 0.0	 0.0	 0.0	 0.0	 0	    1.08950	   -5.99217	 220.0	 0	    1.11000	    0.95000;
	10115	 2	 0.0	 0.0	 0.0	 0.0	 0	    1.00433	   -1.19792	 400.0	 0	    1.05000	    0.95000;
	10116	 2	 0.0	 0.0	 0.0	 0.0	 0	    1.00433	   -1.19792	 400.0	 0	    1.05000	    0.95000;
	10117	 1	 0.0	 0.0	 0.0	 0.0	 0	    1.02520	   -4.15053	 400.0	 0	    1.05000	    0.95000;
	10118	 2	 0.0	 0.0	 0.0	 0.0	 0	    1.03691	    0.39753	 400.0	 0	    1.05000	    0.95000;
	10119	 1	 0.0	 0.0	 0.0	 0.0	 0	    1.01202	   -2.26758	 400.0	 0	    1.05000	    0.95000;
	10120	 1	 0.0	 0.0	 0.0	 0.0	 0	    1.00677	   -2.46206	 400.0	 0	    1.05000	    0.95000;
	10121	 1	 80.0	 20.0	 0.0	 0.0	 0	    1.04154	   -7.96448	 220.0	 0	    1.11000	    0.95000;
	10122	 1	 0.0	 0.0	 0.0	 0.0	 0	    1.04826	   -8.84132	 220.0	 0	    1.11000	    0.95000;
	10123	 1	 0.0	 0.0	 0.0	 0.0	 0	    1.04988	   -3.72080	 400.0	 0	    1.05000	    0.95000;
	10124	 1	 0.0	 0.0	 0.0	 0.0	 0	    1.02256	    1.05663	 400.0	 0	    1.05000	    0.95000;
	10125	 1	 0.0	 0.0	 0.0	 0.0	 0	    1.01674	   -3.27685	 400.0	 0	    1.05000	    0.95000;
	10126	 2	 0.0	 0.0	 0.0	 0.0	 0	    1.01140	   -2.46159	 400.0	 0	    1.05000	    0.95000;
	10127	 1	 0.0	 0.0	 0.0	 0.0	 0	    1.09536	   -6.23951	 220.0	 0	    1.11000	    0.95000;
	10128	 1	 0.0	 0.0	 0.0	 0.0	 0	    1.09536	   -6.23951	 220.0	 0	    1.11000	    0.95000;
	10129	 2	 0.2	 100.0	 0.0	 0.0	 0	    1.01600	    2.06577	 400.0	 0	    1.05000	    0.95000;
	10130	 1	 0.0	 0.0	 0.0	 0.0	 0	    1.01615	    2.03710	 400.0	 0	    1.05000	    0.95000;
	10131	 1	 0.0	 0.0	 0.0	 0.0	 0	    1.01094	   -2.95084	 400.0	 0	    1.05000	    0.95000;
	10132	 2	 0.0	 0.0	 0.0	 0.0	 0	    1.02745	   -3.62826	 400.0	 0	    1.05000	    0.95000;
	10133	 1	 0.0	 0.0	 0.0	 0.0	 0	    1.02990	   -2.37430	 400.0	 0	    1.05000	    0.95000;
	10134	 1	 0.0	 0.0	 0.0	 0.0	 0	    1.02917	   -3.00224	 400.0	 0	    1.05000	    0.95000;
	10135	 1	 0.0	 0.0	 0.0	 0.0	 0	    1.03103	   -7.93927	 220.0	 0	    1.11000	    0.95000;
	10136	 1	 0.0	 0.0	 0.0	 0.0	 0	    1.06848	   -6.55942	 220.0	 0	    1.11000	    0.95000;
	10137	 1	 0.0	 0.0	 0.0	 0.0	 0	    1.01100	  -16.29765	 220.0	 0	    1.11000	    0.95000;
	10138	 1	 0.0	 0.0	 0.0	 0.0	 0	    1.02158	   -3.85147	 400.0	 0	    1.05000	    0.95000;
	10139	 2	 0.0	 0.0	 0.0	 0.0	 0	    1.03013	   -0.62973	 400.0	 0	    1.05000	    0.95000;
	10140	 2	 0.0	 0.0	 0.0	 0.0	 0	    1.03128	   -0.14002	 400.0	 0	    1.05000	    0.95000;
	10141	 2	 0.0	 0.0	 0.0	 0.0	 0	    1.01621	   -0.64106	 400.0	 0	    1.05000	    0.95000;
	10142	 1	 0.0	 0.0	 0.0	 0.0	 0	    1.02001	   -3.53222	 400.0	 0	    1.05000	    0.95000;
	10143	 1	 0.0	 0.0	 0.0	 0.0	 0	    1.03014	   -1.91851	 400.0	 0	    1.05000	    0.95000;
	10144	 1	 0.0	 0.0	 0.0	 0.0	 0	    1.03017	   -1.91750	 400.0	 0	    1.05000	    0.95000;
	10145	 1	 0.0	 0.0	 0.0	 0.0	 0	    1.00959	   -2.73862	 400.0	 0	    1.05000	    0.95000;
	10146	 2	 0.0	 0.0	 0.0	 0.0	 0	    1.05652	   -2.53287	 220.0	 0	    1.11000	    0.95000;
	10147	 1	 0.0	 0.0	 0.0	 0.0	 0	    1.02787	   -4.44360	 400.0	 0	    1.05000	    0.95000;
	10148	 1	 0.0	 0.0	 0.0	 0.0	 0	    1.07043	   -6.22429	 220.0	 0	    1.11000	    0.95000;
	10149	 1	 0.0	 0.0	 0.0	 0.0	 0	    1.07041	   -6.22718	 220.0	 0	    1.11000	    0.95000;
	10150	 2	 0.0	 0.0	 0.0	 0.0	 0	    0.98988	   -1.68792	 400.0	 0	    1.05000	    0.95000;
	10151	 1	 0.0	 0.0	 0.0	 0.0	 0	    1.03993	   -2.57278	 400.0	 0	    1.05000	    0.95000;
	10152	 1	 0.0	 0.0	 0.0	 0.0	 0	    1.02352	    0.40183	 400.0	 0	    1.05000	    0.95000;
	10153	 1	 0.0	 0.0	 0.0	 0.0	 0	    1.02872	   -1.84721	 400.0	 0	    1.05000	    0.95000;
	10154	 1	 80.0	 20.0	 0.0	 0.0	 0	    1.04965	   -3.25182	 220.0	 0	    1.11000	    0.95000;
	10155	 1	 0.0	 0.0	 0.0	 0.0	 0	    1.08080	   -6.40290	 220.0	 0	    1.11000	    0.95000;
	10156	 1	 0.0	 0.0	 0.0	 0.0	 0	    1.02106	   -4.00413	 400.0	 0	    1.05000	    0.95000;
	10157	 1	 0.0	 0.0	 0.0	 0.0	 0	    1.07269	   -4.11713	 220.0	 0	    1.11000	    0.95000;
	10158	 1	 0.0	 0.0	 0.0	 0.0	 0	    1.01386	   -1.92178	 400.0	 0	    1.05000	    0.95000;
	10159	 1	 0.0	 0.0	 0.0	 0.0	 0	    1.11000	   -3.85914	 220.0	 0	    1.11000	    0.95000;
	10160	 1	 0.0	 0.0	 0.0	 0.0	 0	    1.02921	  -16.51366	 220.0	 0	    1.11000	    0.95000;
	10161	 1	 0.0	 0.0	 0.0	 0.0	 0	    1.01906	   -3.71009	 400.0	 0	    1.05000	    0.95000;
	10162	 1	 0.0	 0.0	 0.0	 0.0	 0	    1.05733	   -7.95915	 220.0	 0	    1.11000	    0.95000;
	10163	 1	 0.0	 0.0	 0.0	 0.0	 0	    1.09421	   -6.43486	 220.0	 0	    1.11000	    0.95000;
	10164	 1	 0.0	 0.0	 0.0	 0.0	 0	    1.03298	   -3.71986	 400.0	 0	    1.05000	    0.95000;
	10165	 1	 0.0	 0.0	 0.0	 0.0	 0	    1.02147	   -4.51354	 400.0	 0	    1.05000	    0.95000;
	10166	 1	 0.0	 0.0	 0.0	 0.0	 0	    1.05329	   -7.32448	 220.0	 0	    1.11000	    0.95000;
	10167	 1	 0.0	 0.0	 0.0	 0.0	 0	    1.02672	   -4.11858	 400.0	 0	    1.05000	    0.95000;
	10168	 1	 0.0	 0.0	 0.0	 0.0	 0	    1.02672	   -4.11858	 400.0	 0	    1.05000	    0.95000;
	10169	 1	 0.0	 0.0	 0.0	 0.0	 0	    1.02706	   -4.07186	 400.0	 0	    1.05000	    0.95000;
	10170	 1	 0.0	 0.0	 0.0	 0.0	 0	    1.02706	   -4.07186	 400.0	 0	    1.05000	    0.95000;
	10171	 2	 -104.8	 -159.0	 0.0	 0.0	 0	    0.99541	   -3.25362	 400.0	 0	    1.05000	    0.95000;
	10172	 1	 247.4	 -57.5	 0.0	 0.0	 0	    1.04998	   -5.00383	 400.0	 0	    1.05000	    0.95000;
	10173	 1	 247.4	 -57.5	 0.0	 0.0	 0	    1.04998	   -5.00383	 400.0	 0	    1.05000	    0.95000;
	10174	 1	 371.5	 403.5	 0.0	 0.0	 0	    1.00138	   -5.04884	 400.0	 0	    1.05000	    0.95000;
	10176	 2	 -249.9	 162.6	 0.0	 0.0	 0	    0.99912	   -3.45093	 400.0	 0	    1.05000	    0.95000;
	10177	 2	 -249.9	 162.6	 0.0	 0.0	 0	    0.99912	   -3.45093	 400.0	 0	    1.05000	    0.95000;
	10178	 1	 52.5	 207.2	 0.0	 0.0	 0	    1.02696	  -10.32461	 400.0	 0	    1.05000	    0.95000;
	10179	 1	 379.5	 54.6	 0.0	 0.0	 0	    1.04077	  -13.01622	 400.0	 0	    1.05000	    0.95000;
	10180	 1	 73.6	 -95.6	 0.0	 0.0	 0	    1.09253	  -16.46088	 220.0	 0	    1.11000	    0.95000;
	10181	 1	 73.6	 -95.6	 0.0	 0.0	 0	    1.09253	  -16.46088	 220.0	 0	    1.11000	    0.95000;
	10182	 1	 107.2	 -44.4	 0.0	 0.0	 0	    1.05000	  -12.36271	 400.0	 0	    1.05000	    0.95000;
	10183	 1	 86.0	 8.0	 0.0	 0.0	 0	    1.04806	  -10.40623	 400.0	 0	    1.05000	    0.95000;
	10184	 1	 70.0	 49.0	 0.0	 0.0	 0	    1.05545	  -14.32001	 220.0	 0	    1.11000	    0.95000;
	10185	 1	 0.0	 0.0	 0.0	 0.0	 0	    1.04668	  -12.72338	 400.0	 0	    1.05000	    0.95000;
	10186	 2	 0.0	 0.0	 0.0	 0.0	 0	    1.09376	   -7.53061	 220.0	 0	    1.11000	    0.95000;
	10187	 2	 0.0	 0.0	 0.0	 0.0	 0	    1.09383	   -7.49791	 220.0	 0	    1.11000	    0.95000;
	10188	 2	 0.0	 0.0	 0.0	 0.0	 0	    1.04585	   -9.07342	 400.0	 0	    1.05000	    0.95000;
	10189	 2	 10.2	 0.0	 0.0	 0.0	 0	    1.04693	  -10.24640	 400.0	 0	    1.05000	    0.95000;
	10190	 2	 0.0	 0.0	 0.0	 0.0	 0	    1.04461	   -9.89670	 400.0	 0	    1.05000	    0.95000;
	10191	 2	 0.0	 0.0	 0.0	 0.0	 0	    1.04462	   -9.89110	 400.0	 0	    1.05000	    0.95000;
	10192	 2	 0.0	 0.0	 0.0	 0.0	 0	    1.05235	  -11.05903	 220.0	 0	    1.11000	    0.95000;
	10193	 1	 0.0	 0.0	 0.0	 0.0	 0	    1.05234	  -11.06129	 220.0	 0	    1.11000	    0.95000;
	10194	 2	 0.0	 0.0	 0.0	 0.0	 0	    1.03762	   -9.33191	 400.0	 0	    1.05000	    0.95000;
	10195	 1	 0.0	 0.0	 0.0	 0.0	 0	    1.03763	   -9.36711	 400.0	 0	    1.05000	    0.95000;
	10196	 2	 0.0	 0.0	 0.0	 0.0	 0	    1.04343	  -12.50798	 400.0	 0	    1.05000	    0.95000;
	10197	 1	 295.0	 51.9	 0.0	 0.0	 0	    1.04308	  -12.22269	 400.0	 0	    1.05000	    0.95000;
	10198	 1	 0.0	 0.0	 0.0	 0.0	 0	    1.04794	  -10.74686	 400.0	 0	    1.05000	    0.95000;
	10199	 1	 308.0	 40.0	 0.0	 0.0	 0	    1.08553	  -10.00151	 220.0	 0	    1.11000	    0.95000;
	10200	 1	 0.0	 0.0	 0.0	 0.0	 0	    1.08555	   -9.98492	 220.0	 0	    1.11000	    0.95000;
	10201	 1	 0.0	 0.0	 0.0	 0.0	 0	    1.03139	  -10.74224	 400.0	 0	    1.05000	    0.95000;
	10202	 1	 103.0	 28.0	 0.0	 0.0	 0	    1.03761	  -12.52896	 220.0	 0	    1.11000	    0.95000;
	10203	 1	 0.0	 0.0	 0.0	 0.0	 0	    1.03761	  -12.52896	 220.0	 0	    1.11000	    0.95000;
	10204	 1	 170.0	 33.0	 0.0	 0.0	 0	    1.04202	  -10.36413	 400.0	 0	    1.05000	    0.95000;
	10205	 1	 154.0	 6.0	 0.0	 0.0	 0	    1.04591	  -12.71923	 400.0	 0	    1.05000	    0.95000;
	10206	 1	 150.0	 15.0	 0.0	 0.0	 0	    1.03112	  -17.73247	 220.0	 0	    1.11000	    0.95000;
	10207	 1	 113.0	 15.0	 0.0	 0.0	 0	    1.04500	  -11.17762	 400.0	 0	    1.05000	    0.95000;
	10208	 1	 65.0	 11.0	 0.0	 0.0	 0	    1.04744	  -12.04729	 400.0	 0	    1.05000	    0.95000;
	10209	 1	 60.0	 10.0	 0.0	 0.0	 0	    1.06738	  -15.07178	 220.0	 0	    1.11000	    0.95000;
	10210	 1	 204.0	 16.9	 0.0	 0.0	 0	    1.04665	  -11.90278	 400.0	 0	    1.05000	    0.95000;
	10211	 1	 142.0	 10.9	 0.0	 0.0	 0	    1.07235	  -14.26099	 220.0	 0	    1.11000	    0.95000;
	10212	 1	 83.0	 19.0	 0.0	 0.0	 0	    1.04224	  -15.73735	 220.0	 0	    1.11000	    0.95000;
	10213	 1	 189.0	 35.0	 0.0	 0.0	 0	    1.03688	  -12.27210	 400.0	 0	    1.05000	    0.95000;
	10214	 1	 17.0	 6.0	 0.0	 0.0	 0	    1.04974	  -12.48360	 400.0	 0	    1.05000	    0.95000;
	10215	 1	 0.0	 0.0	 0.0	 0.0	 0	    1.04574	  -12.54106	 400.0	 0	    1.05000	    0.95000;
	10216	 1	 2.0	 -6.0	 0.0	 0.0	 0	    1.04633	  -15.07490	 220.0	 0	    1.11000	    0.95000;
	10217	 1	 88.0	 -4.0	 0.0	 0.0	 0	    1.04525	  -12.29731	 400.0	 0	    1.05000	    0.95000;
	10218	 1	 0.0	 0.0	 0.0	 0.0	 0	    1.04415	  -10.13622	 400.0	 0	    1.05000	    0.95000;
	10219	 1	 0.0	 0.0	 0.0	 0.0	 0	    1.04416	  -10.13211	 400.0	 0	    1.05000	    0.95000;
	10220	 1	 0.0	 0.0	 0.0	 0.0	 0	    1.03762	   -9.36703	 400.0	 0	    1.05000	    0.95000;
	10221	 1	 0.0	 0.0	 0.0	 0.0	 0	    1.03468	   -8.52270	 400.0	 0	    1.05000	    0.95000;
	10222	 1	 50.0	 20.0	 0.0	 0.0	 0	    1.04196	  -12.17760	 220.0	 0	    1.11000	    0.95000;
	10223	 2	 -338.1	 155.6	 0.0	 0.0	 0	    1.03136	   -7.67064	 400.0	 0	    1.05000	    0.95000;
	10225	 2	 195.7	 126.6	 0.0	 0.0	 0	    1.04538	  -14.34882	 110.0	 0	    1.12000	    0.95000;
	10226	 2	 141.9	 93.1	 0.0	 0.0	 0	    1.04010	  -11.11351	 110.0	 0	    1.12000	    0.95000;
	10227	 2	 234.5	 57.5	 0.0	 0.0	 0	    1.04886	  -16.49403	 110.0	 0	    1.12000	    0.95000;
	10228	 2	 388.2	 98.2	 0.0	 0.0	 0	    0.96266	  -27.30708	 110.0	 0	    1.12000	    0.95000;
	10229	 2	 84.7	 29.1	 0.0	 0.0	 0	    1.09245	  -17.70480	 110.0	 0	    1.12000	    0.95000;
	10230	 2	 0.0	 0.0	 0.0	 0.0	 0	    1.03414	  -12.65859	 110.0	 0	    1.12000	    0.95000;
	10231	 1	 194.4	 43.4	 0.0	 0.0	 0	    1.00398	  -23.67068	 110.0	 0	    1.12000	    0.95000;
	10232	 2	 195.7	 43.3	 0.0	 0.0	 0	    0.99234	  -23.54697	 110.0	 0	    1.12000	    0.95000;
	10233	 2	 513.7	 92.5	 0.0	 0.0	 0	    1.03843	  -18.77920	 110.0	 0	    1.12000	    0.95000;
	10234	 2	 455.4	 108.8	 0.0	 0.0	 0	    0.95000	  -30.22941	 110.0	 0	    1.12000	    0.95000;
	10235	 2	 61.8	 19.6	 0.0	 0.0	 0	    1.10541	  -17.87297	 110.0	 0	    1.12000	    0.95000;
	10236	 2	 260.8	 80.8	 0.0	 0.0	 0	    1.08644	  -10.44069	 110.0	 0	    1.12000	    0.95000;
	10237	 2	 199.4	 65.6	 0.0	 0.0	 0	    1.10447	  -17.90804	 110.0	 0	    1.12000	    0.95000;
	10238	 2	 395.0	 96.4	 0.0	 0.0	 0	    0.95805	  -23.72596	 110.0	 0	    1.12000	    0.95000;
	10239	 2	 344.4	 71.0	 0.0	 0.0	 0	    1.06461	  -14.42957	 110.0	 0	    1.12000	    0.95000;
	10240	 2	 0.0	 0.0	 0.0	 0.0	 0	    1.04357	  -10.41605	 110.0	 0	    1.12000	    0.95000;
	10241	 1	 0.0	 0.0	 0.0	 0.0	 0	    1.03703	  -11.17016	 110.0	 0	    1.12000	    0.95000;
	10242	 1	 0.0	 0.0	 0.0	 0.0	 0	    1.09282	  -17.55944	 110.0	 0	    1.12000	    0.95000;
	10243	 1	 0.0	 0.0	 0.0	 0.0	 0	    1.04555	  -14.34952	 110.0	 0	    1.12000	    0.95000;
	10244	 1	 0.0	 0.0	 0.0	 0.0	 0	    1.04666	   -9.43408	 110.0	 0	    1.12000	    0.95000;
	10245	 1	 185.4	 59.7	 0.0	 0.0	 0	    1.10563	  -17.94849	 110.0	 0	    1.12000	    0.95000;
	10246	 2	 4.0	 2.0	 0.0	 0.0	 0	    1.03728	   -8.14622	 14.0	 0	    1.12000	    0.95000;
	10247	 2	 14.0	 10.0	 0.0	 0.0	 0	    1.09638	   -8.50366	 14.0	 0	    1.12000	    0.95000;
	10248	 2	 14.0	 10.0	 0.0	 0.0	 0	    1.11136	   -6.23547	 14.0	 0	    1.12000	    0.95000;
	10249	 2	 5.0	 3.0	 0.0	 0.0	 0	    1.03167	  -15.38933	 23.0	 0	    1.12000	    0.95000;
	10250	 2	 28.0	 17.0	 0.0	 0.0	 0	    1.03964	   -6.80610	 16.0	 0	    1.12000	    0.95000;
	10251	 2	 28.0	 17.0	 0.0	 0.0	 0	    1.03916	   -6.80710	 16.0	 0	    1.12000	    0.95000;
	10252	 2	 28.0	 17.0	 0.0	 0.0	 0	    1.03915	   -6.79974	 16.0	 0	    1.12000	    0.95000;
	10253	 2	 26.7	 5.9	 0.0	 0.0	 0	    1.06800	  -15.70961	 15.0	 0	    1.12000	    0.95000;
	10254	 2	 23.0	 10.0	 0.0	 0.0	 0	    0.99830	   -8.36844	 20.0	 0	    1.12000	    0.95000;
	10255	 2	 4.0	 2.0	 0.0	 0.0	 0	    1.08055	  -12.79948	 16.0	 0	    1.12000	    0.95000;
	10256	 2	 30.0	 10.0	 0.0	 0.0	 0	    1.09671	   -7.18760	 16.0	 0	    1.12000	    0.95000;
	10257	 2	 15.0	 5.0	 0.0	 0.0	 0	    1.09568	   -7.97387	 16.0	 0	    1.12000	    0.95000;
	10258	 2	 20.0	 8.0	 0.0	 0.0	 0	    1.08658	   -4.12288	 16.0	 0	    1.12000	    0.95000;
	10259	 2	 30.0	 14.0	 0.0	 0.0	 0	    0.96936	   -2.99926	 17.0	 0	    1.12000	    0.95000;
	10260	 2	 45.0	 21.0	 0.0	 0.0	 0	    1.09604	   -3.60751	 17.0	 0	    1.12000	    0.95000;
	10261	 2	 80.0	 40.0	 0.0	 0.0	 0	    1.00569	   -7.79326	 25.0	 0	    1.12000	    0.95000;
	10262	 2	 80.0	 40.0	 0.0	 0.0	 0	    1.00556	   -7.78754	 25.0	 0	    1.12000	    0.95000;
	10263	 2	 10.0	 4.0	 0.0	 0.0	 0	    1.12000	   -8.29756	 14.0	 0	    1.12000	    0.95000;
	10264	 2	 30.0	 10.0	 0.0	 0.0	 0	    0.98816	   -3.28997	 17.0	 0	    1.12000	    0.95000;
	10265	 2	 30.0	 10.0	 0.0	 0.0	 0	    1.08667	   -3.53819	 16.0	 0	    1.12000	    0.95000;
	10266	 2	 298.7	 37.9	 0.0	 0.0	 0	    1.04357	  -16.87088	 110.0	 0	    1.12000	    0.95000;
	10267	 2	 198.4	 53.4	 0.0	 0.0	 0	    1.04377	  -16.11336	 110.0	 0	    1.12000	    0.95000;
	10268	 2	 114.8	 20.4	 0.0	 0.0	 0	    1.06514	  -13.12716	 110.0	 0	    1.12000	    0.95000;
	10269	 2	 275.2	 110.6	 0.0	 0.0	 0	    1.09387	  -17.35266	 110.0	 0	    1.12000	    0.95000;
	10270	 2	 61.8	 23.7	 0.0	 0.0	 0	    0.99386	  -13.64221	 110.0	 0	    1.12000	    0.95000;
	10271	 2	 385.3	 67.0	 0.0	 0.0	 0	    1.08017	  -21.09121	 110.0	 0	    1.12000	    0.95000;
	10272	 2	 104.1	 17.5	 0.0	 0.0	 0	    1.09087	  -18.47096	 110.0	 0	    1.12000	    0.95000;
	10273	 2	 541.0	 91.4	 0.0	 0.0	 0	    1.01108	  -23.36998	 110.0	 0	    1.12000	    0.95000;
	10274	 2	 256.3	 100.7	 0.0	 0.0	 0	    1.02468	  -14.63671	 110.0	 0	    1.12000	    0.95000;
	10275	 2	 0.0	 0.0	 0.0	 0.0	 0	    1.00285	  -12.67270	 110.0	 0	    1.12000	    0.95000;
	10276	 2	 164.4	 34.0	 0.0	 0.0	 0	    1.07162	  -18.80494	 110.0	 0	    1.12000	    0.95000;
	10277	 2	 616.8	 133.2	 0.0	 0.0	 0	    1.05730	  -20.18370	 110.0	 0	    1.12000	    0.95000;
	10278	 2	 15.0	 10.0	 0.0	 0.0	 0	    1.12000	   -7.13153	 12.0	 0	    1.12000	    0.95000;
	10279	 2	 15.0	 10.0	 0.0	 0.0	 0	    1.12000	   -7.13153	 12.0	 0	    1.12000	    0.95000;
	10280	 1	 149.8	 37.0	 0.0	 0.0	 0	    1.05392	  -12.55600	 110.0	 0	    1.12000	    0.95000;
	10281	 2	 106.0	 22.4	 0.0	 0.0	 0	    1.08058	  -16.77615	 110.0	 0	    1.12000	    0.95000;
	10282	 2	 363.9	 100.1	 0.0	 0.0	 0	    1.07323	  -21.59713	 110.0	 0	    1.12000	    0.95000;
	10283	 1	 0.0	 0.0	 0.0	 0.0	 0	    0.98729	  -23.54697	 13.0	 0	    1.12000	    0.95000;
	10284	 2	 1122.7	 280.7	 0.0	 0.0	 0	    1.12000	  -19.48695	 110.0	 0	    1.12000	    0.95000;
	10285	 2	 155.7	 32.1	 0.0	 0.0	 0	    1.06309	  -14.04571	 110.0	 0	    1.12000	    0.95000;
	10287	 1	 0.0	 0.0	 0.0	 0.0	 0	    1.03500	    0.00000	 110.0	 0	    1.12000	    0.95000;
	10288	 2	 197.5	 44.6	 0.0	 0.0	 0	    1.05080	  -16.82831	 110.0	 0	    1.12000	    0.95000;
	10289	 2	 124.6	 23.4	 0.0	 0.0	 0	    1.06876	  -17.58263	 110.0	 0	    1.12000	    0.95000;
	10290	 2	 148.9	 31.1	 0.0	 0.0	 0	    1.07170	  -22.15612	 110.0	 0	    1.12000	    0.95000;
	10291	 2	 264.7	 53.5	 0.0	 0.0	 0	    1.04153	  -23.47517	 110.0	 0	    1.12000	    0.95000;
	10292	 2	 364.8	 158.7	 0.0	 0.0	 0	    1.12000	  -11.80808	 110.0	 0	    1.12000	    0.95000;
	10293	 2	 54.6	 21.6	 0.0	 0.0	 0	    1.09256	  -17.55848	 110.0	 0	    1.12000	    0.95000;
	10294	 2	 17.5	 3.9	 0.0	 0.0	 1	    1.08233	  -12.77631	 110.0	 0	    1.12000	    0.95000;
	10295	 2	 344.4	 104.0	 0.0	 0.0	 0	    0.97263	  -13.70622	 110.0	 0	    1.12000	    0.95000;
	10296	 2	 275.3	 104.1	 0.0	 0.0	 0	    1.10938	  -17.06263	 110.0	 0	    1.12000	    0.95000;
	10297	 1	 163.6	 2.3	 0.0	 0.0	 0	    1.08937	   -5.38368	 110.0	 0	    1.12000	    0.95000;
	10298	 1	 90.7	 61.0	 0.0	 0.0	 0	    1.05551	   -5.22557	 110.0	 0	    1.12000	    0.95000;
	10299	 1	 314.0	 87.0	 0.0	 0.0	 0	    1.04752	   -6.82503	 110.0	 0	    1.12000	    0.95000;
	10300	 1	 34.0	 13.0	 0.0	 0.0	 0	    1.03176	   -9.92450	 110.0	 0	    1.12000	    0.95000;
	10301	 1	 107.0	 -22.0	 0.0	 0.0	 0	    1.02932	   -5.96084	 110.0	 0	    1.12000	    0.95000;
	10302	 1	 161.0	 58.0	 0.0	 0.0	 0	    1.08882	   -9.59063	 110.0	 0	    1.12000	    0.95000;
	10303	 1	 161.5	 37.0	 0.0	 0.0	 0	    1.05308	   -9.41868	 110.0	 0	    1.12000	    0.95000;
	10304	 1	 161.5	 37.0	 0.0	 0.0	 0	    1.05308	   -9.41868	 110.0	 0	    1.12000	    0.95000;
	10305	 1	 232.0	 -45.9	 0.0	 0.0	 0	    1.09692	   -6.80102	 110.0	 0	    1.12000	    0.95000;
	10306	 1	 143.0	 58.1	 0.0	 0.0	 0	    1.08638	   -5.31743	 110.0	 0	    1.12000	    0.95000;
	10307	 1	 111.5	 32.5	 0.0	 0.0	 0	    1.07241	   -9.04185	 110.0	 0	    1.12000	    0.95000;
	10308	 1	 111.5	 32.5	 0.0	 0.0	 0	    1.09137	   -6.47291	 110.0	 0	    1.12000	    0.95000;
	10309	 1	 124.0	 8.1	 0.0	 0.0	 0	    1.06379	   -4.44773	 110.0	 0	    1.12000	    0.95000;
	10310	 1	 28.5	 6.0	 0.0	 0.0	 0	    1.04535	  -10.60305	 110.0	 0	    1.12000	    0.95000;
	10311	 1	 28.5	 6.0	 0.0	 0.0	 0	    1.04535	  -10.60305	 110.0	 0	    1.12000	    0.95000;
	10312	 1	 135.0	 74.0	 0.0	 0.0	 0	    1.04029	   -7.35600	 110.0	 0	    1.12000	    0.95000;
	10313	 1	 0.0	 0.0	 0.0	 0.0	 0	    1.04836	   -4.10024	 110.0	 0	    1.12000	    0.95000;
	10314	 1	 0.0	 0.0	 0.0	 0.0	 0	    1.04836	   -4.09863	 110.0	 0	    1.12000	    0.95000;
	10315	 1	 110.0	 34.0	 0.0	 0.0	 0	    1.08905	   -3.16571	 110.0	 0	    1.12000	    0.95000;