%%%%%%%%%%%%%%%%%%%%%%%%%%%%%%%%%%%%%%%%%%%%%%%%%%%%%%%%%%%%%%%%%%%%%%%%%%%
%%%%                                                                  %%%%%
%%%%    IEEE PES Power Grid Library - Optimal Power Flow - v17.07     %%%%%
%%%%          (https://github.com/power-grid-lib/pglib-opf)           %%%%%
%%%%             Benchmark Group - Small Angle Difference             %%%%%
%%%%                         27 - June - 2017                         %%%%%
%%%%                                                                  %%%%%
%%%%%%%%%%%%%%%%%%%%%%%%%%%%%%%%%%%%%%%%%%%%%%%%%%%%%%%%%%%%%%%%%%%%%%%%%%%
function mpc = pglib_opf_case39_epri__sad
mpc.version = '2';
mpc.baseMVA = 100.0;

%% bus data
%	bus_i	type	Pd	Qd	Gs	Bs	area	Vm	Va	baseKV	zone	Vmax	Vmin
mpc.bus = [
	1	 1	 97.6	 44.2	 0.0	 0.0	 2	    1.02064	   -6.26920	 345.0	 1	    1.06000	    0.94000;
	2	 1	 0.0	 0.0	 0.0	 0.0	 2	    1.06000	   -2.84605	 345.0	 1	    1.06000	    0.94000;
	3	 1	 322.0	 2.4	 0.0	 0.0	 2	    1.04714	   -6.68412	 345.0	 1	    1.06000	    0.94000;
	4	 1	 500.0	 184.0	 0.0	 0.0	 1	    1.03522	   -8.25788	 345.0	 1	    1.06000	    0.94000;
	5	 1	 0.0	 0.0	 0.0	 0.0	 1	    1.04304	   -7.43792	 345.0	 1	    1.06000	    0.94000;
	6	 1	 0.0	 0.0	 0.0	 0.0	 1	    1.04750	   -6.87397	 345.0	 1	    1.06000	    0.94000;
	7	 1	 233.8	 84.0	 0.0	 0.0	 1	    1.03304	   -8.78606	 345.0	 1	    1.06000	    0.94000;
	8	 1	 522.0	 176.6	 0.0	 0.0	 1	    1.02993	   -9.18799	 345.0	 1	    1.06000	    0.94000;
	9	 1	 6.5	 -66.6	 0.0	 0.0	 1	    1.02972	   -8.09720	 345.0	 1	    1.06000	    0.94000;
	10	 1	 0.0	 0.0	 0.0	 0.0	 1	    1.06000	   -4.72657	 345.0	 1	    1.06000	    0.94000;
	11	 1	 0.0	 0.0	 0.0	 0.0	 1	    1.05456	   -5.45594	 345.0	 1	    1.06000	    0.94000;
	12	 1	 8.53	 88.0	 0.0	 0.0	 1	    1.04209	   -5.44458	 345.0	 1	    1.06000	    0.94000;
	13	 1	 0.0	 0.0	 0.0	 0.0	 1	    1.05427	   -5.31242	 345.0	 1	    1.06000	    0.94000;
	14	 1	 0.0	 0.0	 0.0	 0.0	 1	    1.04435	   -6.68693	 345.0	 1	    1.06000	    0.94000;
	15	 1	 320.0	 153.0	 0.0	 0.0	 3	    1.03341	   -7.03768	 345.0	 1	    1.06000	    0.94000;
	16	 1	 329.0	 32.3	 0.0	 0.0	 3	    1.04305	   -5.64710	 345.0	 1	    1.06000	    0.94000;
	17	 1	 0.0	 0.0	 0.0	 0.0	 2	    1.04576	   -6.33035	 345.0	 1	    1.06000	    0.94000;
	18	 1	 158.0	 30.0	 0.0	 0.0	 2	    1.04506	   -6.88293	 345.0	 1	    1.06000	    0.94000;
	19	 1	 0.0	 0.0	 0.0	 0.0	 3	    1.04575	   -1.34953	 345.0	 1	    1.06000	    0.94000;
	20	 1	 680.0	 103.0	 0.0	 0.0	 3	    0.98090	   -2.76319	 345.0	 1	    1.06000	    0.94000;
	21	 1	 274.0	 115.0	 0.0	 0.0	 3	    1.04231	   -3.36787	 345.0	 1	    1.06000	    0.94000;
	22	 1	 0.0	 0.0	 0.0	 0.0	 3	    1.05910	    0.91780	 345.0	 1	    1.06000	    0.94000;
	23	 1	 247.5	 84.6	 0.0	 0.0	 3	    1.05208	    0.48992	 345.0	 1	    1.06000	    0.94000;
	24	 1	 308.6	 -92.2	 0.0	 0.0	 3	    1.04812	   -5.58888	 345.0	 1	    1.06000	    0.94000;
	25	 1	 224.0	 47.2	 0.0	 0.0	 2	    1.05563	   -3.10313	 345.0	 1	    1.06000	    0.94000;
	26	 1	 139.0	 17.0	 0.0	 0.0	 2	    1.05926	   -4.48108	 345.0	 1	    1.06000	    0.94000;
	27	 1	 281.0	 75.5	 0.0	 0.0	 2	    1.04731	   -6.46661	 345.0	 1	    1.06000	    0.94000;
	28	 1	 206.0	 27.6	 0.0	 0.0	 3	    1.05966	   -1.10261	 345.0	 1	    1.06000	    0.94000;
	29	 1	 283.5	 26.9	 0.0	 0.0	 3	    1.06000	    1.58163	 345.0	 1	    1.06000	    0.94000;
	30	 2	 0.0	 0.0	 0.0	 0.0	 2	    1.05893	    4.02792	 345.0	 1	    1.06000	    0.94000;
	31	 3	 9.2	 4.6	 0.0	 0.0	 1	    1.04275	   -0.00000	 345.0	 1	    1.06000	    0.94000;
	32	 2	 0.0	 0.0	 0.0	 0.0	 1	    1.04116	    2.14739	 345.0	 1	    1.06000	    0.94000;
	33	 2	 0.0	 0.0	 0.0	 0.0	 3	    0.98725	    3.65629	 345.0	 1	    1.06000	    0.94000;
	34	 2	 0.0	 0.0	 0.0	 0.0	 3	    0.99483	    2.59608	 345.0	 1	    1.06000	    0.94000;
	35	 2	 0.0	 0.0	 0.0	 0.0	 3	    1.06000	    6.06393	 345.0	 1	    1.06000	    0.94000;
	36	 2	 0.0	 0.0	 0.0	 0.0	 3	    1.06000	    7.36389	 345.0	 1	    1.06000	    0.94000;
	37	 2	 0.0	 0.0	 0.0	 0.0	 2	    1.02983	   -0.03871	 345.0	 1	    1.06000	    0.94000;
	38	 2	 0.0	 0.0	 0.0	 0.0	 3	    1.03701	    8.45560	 345.0	 1	    1.06000	    0.94000;
	39	 2	 1104.0	 250.0	 0.0	 0.0	 1	    0.99308	   -7.14396	 345.0	 1	    1.06000	    0.94000;
];

%% generator data
%	bus	Pg	Qg	Qmax	Qmin	Vg	mBase	status	Pmax	Pmin	Pc1	Pc2	Qc1min	Qc1max	Qc2min	Qc2max	ramp_agc	ramp_10	ramp_30	ramp_q	apf
mpc.gen = [
	30	 724.124	 188.481	 400.0	 140.0	 1.05893	 100.0	 1	 1040.0	 0.0	 0.0	 0.0	 0.0	 0.0	 0.0	 0.0	 0.0	 0.0	 0.0	 0.0	 0.0;
	31	 497.913	 300.0	 300.0	 -100.0	 1.04275	 100.0	 1	 646.0	 0.0	 0.0	 0.0	 0.0	 0.0	 0.0	 0.0	 0.0	 0.0	 0.0	 0.0	 0.0;
	32	 617.238	 300.0	 300.0	 150.0	 1.04116	 100.0	 1	 725.0	 0.0	 0.0	 0.0	 0.0	 0.0	 0.0	 0.0	 0.0	 0.0	 0.0	 0.0	 0.0;
	33	 596.131	 65.432	 250.0	 0.0	 0.98725	 100.0	 1	 652.0	 0.0	 0.0	 0.0	 0.0	 0.0	 0.0	 0.0	 0.0	 0.0	 0.0	 0.0	 0.0;
	34	 508.0	 123.427	 167.0	 0.0	 0.99483	 100.0	 1	 508.0	 0.0	 0.0	 0.0	 0.0	 0.0	 0.0	 0.0	 0.0	 0.0	 0.0	 0.0	 0.0;
	35	 687.0	 229.026	 300.0	 -100.0	 1.06	 100.0	 1	 687.0	 0.0	 0.0	 0.0	 0.0	 0.0	 0.0	 0.0	 0.0	 0.0	 0.0	 0.0	 0.0;
	36	 491.658	 51.287	 240.0	 0.0	 1.06	 100.0	 1	 580.0	 0.0	 0.0	 0.0	 0.0	 0.0	 0.0	 0.0	 0.0	 0.0	 0.0	 0.0	 0.0;
	37	 244.391	 0.0	 250.0	 0.0	 1.02983	 100.0	 1	 564.0	 0.0	 0.0	 0.0	 0.0	 0.0	 0.0	 0.0	 0.0	 0.0	 0.0	 0.0	 0.0;
	38	 824.121	 26.189	 300.0	 -150.0	 1.03701	 100.0	 1	 865.0	 0.0	 0.0	 0.0	 0.0	 0.0	 0.0	 0.0	 0.0	 0.0	 0.0	 0.0	 0.0;
	39	 1100.0	 -100.0	 300.0	 -100.0	 0.99308	 100.0	 1	 1100.0	 0.0	 0.0	 0.0	 0.0	 0.0	 0.0	 0.0	 0.0	 0.0	 0.0	 0.0	 0.0;
];

%% generator cost data
%	2	startup	shutdown	n	c(n-1)	...	c0
mpc.gencost = [
	2	 0.0	 0.0	 3	   0.000000	   0.196216	   0.000000;
	2	 0.0	 0.0	 3	   0.000000	   0.462527	   0.000000;
	2	 0.0	 0.0	 3	   0.000000	   0.768689	   0.000000;
	2	 0.0	 0.0	 3	   0.000000	   1.073117	   0.000000;
	2	 0.0	 0.0	 3	   0.000000	   0.764088	   0.000000;
	2	 0.0	 0.0	 3	   0.000000	   0.996155	   0.000000;
	2	 0.0	 0.0	 3	   0.000000	   0.567133	   0.000000;
	2	 0.0	 0.0	 3	   0.000000	   0.973223	   0.000000;
	2	 0.0	 0.0	 3	   0.000000	   0.698902	   0.000000;
	2	 0.0	 0.0	 3	   0.000000	   0.848427	   0.000000;
];

%% branch data
%	fbus	tbus	r	x	b	rateA	rateB	rateC	ratio	angle	status	angmin	angmax
mpc.branch = [
	1	 2	 0.0035	 0.0411	 0.6987	 600.0	 600.0	 600.0	 0.0	 0.0	 1	 -6.873967	 6.873967;
	1	 39	 0.001	 0.025	 0.75	 1000.0	 1000.0	 1000.0	 0.0	 0.0	 1	 -6.873967	 6.873967;
	2	 3	 0.0013	 0.0151	 0.2572	 500.0	 500.0	 500.0	 0.0	 0.0	 1	 -6.873967	 6.873967;
	2	 25	 0.007	 0.0086	 0.146	 500.0	 500.0	 500.0	 0.0	 0.0	 1	 -6.873967	 6.873967;
	2	 30	 0.0	 0.0181	 0.0	 900.0	 900.0	 2500.0	 1.025	 0.0	 1	 -6.873967	 6.873967;
	3	 4	 0.0013	 0.0213	 0.2214	 500.0	 500.0	 500.0	 0.0	 0.0	 1	 -6.873967	 6.873967;
	3	 18	 0.0011	 0.0133	 0.2138	 500.0	 500.0	 500.0	 0.0	 0.0	 1	 -6.873967	 6.873967;
	4	 5	 0.0008	 0.0128	 0.1342	 600.0	 600.0	 600.0	 0.0	 0.0	 1	 -6.873967	 6.873967;
	4	 14	 0.0008	 0.0129	 0.1382	 500.0	 500.0	 500.0	 0.0	 0.0	 1	 -6.873967	 6.873967;
	5	 6	 0.0002	 0.0026	 0.0434	 1200.0	 1200.0	 1200.0	 0.0	 0.0	 1	 -6.873967	 6.873967;
	5	 8	 0.0008	 0.0112	 0.1476	 900.0	 900.0	 900.0	 0.0	 0.0	 1	 -6.873967	 6.873967;
	6	 7	 0.0006	 0.0092	 0.113	 900.0	 900.0	 900.0	 0.0	 0.0	 1	 -6.873967	 6.873967;
	6	 11	 0.0007	 0.0082	 0.1389	 480.0	 480.0	 480.0	 0.0	 0.0	 1	 -6.873967	 6.873967;
	6	 31	 0.0	 0.025	 0.0	 1800.0	 1800.0	 1800.0	 1.07	 0.0	 1	 -6.873967	 6.873967;
	7	 8	 0.0004	 0.0046	 0.078	 900.0	 900.0	 900.0	 0.0	 0.0	 1	 -6.873967	 6.873967;
	8	 9	 0.0023	 0.0363	 0.3804	 900.0	 900.0	 900.0	 0.0	 0.0	 1	 -6.873967	 6.873967;
	9	 39	 0.001	 0.025	 1.2	 900.0	 900.0	 900.0	 0.0	 0.0	 1	 -6.873967	 6.873967;
	10	 11	 0.0004	 0.0043	 0.0729	 600.0	 600.0	 600.0	 0.0	 0.0	 1	 -6.873967	 6.873967;
	10	 13	 0.0004	 0.0043	 0.0729	 600.0	 600.0	 600.0	 0.0	 0.0	 1	 -6.873967	 6.873967;
	10	 32	 0.0	 0.02	 0.0	 900.0	 900.0	 2500.0	 1.07	 0.0	 1	 -6.873967	 6.873967;
	12	 11	 0.0016	 0.0435	 0.0	 500.0	 500.0	 500.0	 1.006	 0.0	 1	 -6.873967	 6.873967;
	12	 13	 0.0016	 0.0435	 0.0	 500.0	 500.0	 500.0	 1.006	 0.0	 1	 -6.873967	 6.873967;
	13	 14	 0.0009	 0.0101	 0.1723	 600.0	 600.0	 600.0	 0.0	 0.0	 1	 -6.873967	 6.873967;
	14	 15	 0.0018	 0.0217	 0.366	 600.0	 600.0	 600.0	 0.0	 0.0	 1	 -6.873967	 6.873967;
	15	 16	 0.0009	 0.0094	 0.171	 600.0	 600.0	 600.0	 0.0	 0.0	 1	 -6.873967	 6.873967;
	16	 17	 0.0007	 0.0089	 0.1342	 600.0	 600.0	 600.0	 0.0	 0.0	 1	 -6.873967	 6.873967;
	16	 19	 0.0016	 0.0195	 0.304	 600.0	 600.0	 2500.0	 0.0	 0.0	 1	 -6.873967	 6.873967;
	16	 21	 0.0008	 0.0135	 0.2548	 600.0	 600.0	 600.0	 0.0	 0.0	 1	 -6.873967	 6.873967;
	16	 24	 0.0003	 0.0059	 0.068	 600.0	 600.0	 600.0	 0.0	 0.0	 1	 -6.873967	 6.873967;
	17	 18	 0.0007	 0.0082	 0.1319	 600.0	 600.0	 600.0	 0.0	 0.0	 1	 -6.873967	 6.873967;
	17	 27	 0.0013	 0.0173	 0.3216	 600.0	 600.0	 600.0	 0.0	 0.0	 1	 -6.873967	 6.873967;
	19	 20	 0.0007	 0.0138	 0.0	 900.0	 900.0	 2500.0	 1.06	 0.0	 1	 -6.873967	 6.873967;
	19	 33	 0.0007	 0.0142	 0.0	 900.0	 900.0	 2500.0	 1.07	 0.0	 1	 -6.873967	 6.873967;
	20	 34	 0.0009	 0.018	 0.0	 900.0	 900.0	 2500.0	 1.009	 0.0	 1	 -6.873967	 6.873967;
	21	 22	 0.0008	 0.014	 0.2565	 900.0	 900.0	 900.0	 0.0	 0.0	 1	 -6.873967	 6.873967;
	22	 23	 0.0006	 0.0096	 0.1846	 600.0	 600.0	 600.0	 0.0	 0.0	 1	 -6.873967	 6.873967;
	22	 35	 0.0	 0.0143	 0.0	 900.0	 900.0	 2500.0	 1.025	 0.0	 1	 -6.873967	 6.873967;
	23	 24	 0.0022	 0.035	 0.361	 600.0	 600.0	 600.0	 0.0	 0.0	 1	 -6.873967	 6.873967;
	23	 36	 0.0005	 0.0272	 0.0	 900.0	 900.0	 2500.0	 1.0	 0.0	 1	 -6.873967	 6.873967;
	25	 26	 0.0032	 0.0323	 0.531	 600.0	 600.0	 600.0	 0.0	 0.0	 1	 -6.873967	 6.873967;
	25	 37	 0.0006	 0.0232	 0.0	 900.0	 900.0	 2500.0	 1.025	 0.0	 1	 -6.873967	 6.873967;
	26	 27	 0.0014	 0.0147	 0.2396	 600.0	 600.0	 600.0	 0.0	 0.0	 1	 -6.873967	 6.873967;
	26	 28	 0.0043	 0.0474	 0.7802	 600.0	 600.0	 600.0	 0.0	 0.0	 1	 -6.873967	 6.873967;
	26	 29	 0.0057	 0.0625	 1.029	 600.0	 600.0	 600.0	 0.0	 0.0	 1	 -6.873967	 6.873967;
	28	 29	 0.0014	 0.0151	 0.249	 600.0	 600.0	 600.0	 0.0	 0.0	 1	 -6.873967	 6.873967;
	29	 38	 0.0008	 0.0156	 0.0	 1200.0	 1200.0	 2500.0	 1.025	 0.0	 1	 -6.873967	 6.873967;
];

% INFO    : === Translation Options ===
% INFO    : Phase Angle Bound:           6.873967 (deg.)
% INFO    : AC OPF Solution File:        ./pglib_opf_case39_epri__sad.m.opf.sol
% INFO    : 
% INFO    : === Voltage Setpoint Replacement Notes ===
% INFO    : Bus 1	: V=1.04211, theta=-9.7881 -> V=1.02064, theta=-6.2692
% INFO    : Bus 2	: V=1.06, theta=-6.84043 -> V=1.06, theta=-2.84605
% INFO    : Bus 3	: V=1.04843, theta=-10.68622 -> V=1.04714, theta=-6.68412
% INFO    : Bus 4	: V=1.03641, theta=-11.26062 -> V=1.03522, theta=-8.25788
% INFO    : Bus 5	: V=1.04455, theta=-9.70992 -> V=1.04304, theta=-7.43792
% INFO    : Bus 6	: V=1.04856, theta=-8.99559 -> V=1.0475, theta=-6.87397
% INFO    : Bus 7	: V=1.03625, theta=-11.01224 -> V=1.03304, theta=-8.78606
% INFO    : Bus 8	: V=1.03422, theta=-11.46959 -> V=1.02993, theta=-9.18799
% INFO    : Bus 9	: V=1.05124, theta=-10.90567 -> V=1.02972, theta=-8.0972
% INFO    : Bus 10	: V=1.05953, theta=-6.93849 -> V=1.06, theta=-4.72657
% INFO    : Bus 11	: V=1.05462, theta=-7.64693 -> V=1.05456, theta=-5.45594
% INFO    : Bus 12	: V=1.042, theta=-7.7785 -> V=1.04209, theta=-5.44458
% INFO    : Bus 13	: V=1.05403, theta=-7.78931 -> V=1.05427, theta=-5.31242
% INFO    : Bus 14	: V=1.04514, theta=-9.82586 -> V=1.04435, theta=-6.68693
% INFO    : Bus 15	: V=1.03708, theta=-11.84353 -> V=1.03341, theta=-7.03768
% INFO    : Bus 16	: V=1.04777, theta=-11.18669 -> V=1.04305, theta=-5.6471
% INFO    : Bus 17	: V=1.04841, theta=-11.34745 -> V=1.04576, theta=-6.33035
% INFO    : Bus 18	: V=1.0472, theta=-11.51102 -> V=1.04506, theta=-6.88293
% INFO    : Bus 19	: V=1.06, theta=-10.46072 -> V=1.04575, theta=-1.34953
% INFO    : Bus 20	: V=0.99709, theta=-11.84005 -> V=0.9809, theta=-2.76319
% INFO    : Bus 21	: V=1.04477, theta=-8.59138 -> V=1.04231, theta=-3.36787
% INFO    : Bus 22	: V=1.05988, theta=-3.97844 -> V=1.0591, theta=0.9178
% INFO    : Bus 23	: V=1.05254, theta=-4.17605 -> V=1.05208, theta=0.48992
% INFO    : Bus 24	: V=1.05197, theta=-11.00002 -> V=1.04812, theta=-5.58888
% INFO    : Bus 25	: V=1.04575, theta=-8.03695 -> V=1.05563, theta=-3.10313
% INFO    : Bus 26	: V=1.05635, theta=-9.13483 -> V=1.05926, theta=-4.48108
% INFO    : Bus 27	: V=1.04686, theta=-11.29164 -> V=1.04731, theta=-6.46661
% INFO    : Bus 28	: V=1.0587, theta=-5.26316 -> V=1.05966, theta=-1.10261
% INFO    : Bus 29	: V=1.06, theta=-2.42411 -> V=1.06, theta=1.58163
% INFO    : Bus 30	: V=1.04686, theta=1.70757 -> V=1.05893, theta=4.02792
% INFO    : Bus 31	: V=1.03899, theta=-0.0 -> V=1.04275, theta=-0.0
% INFO    : Bus 32	: V=1.03812, theta=1.17047 -> V=1.04116, theta=2.14739
% INFO    : Bus 33	: V=1.00137, theta=-8.41864 -> V=0.98725, theta=3.65629
% INFO    : Bus 34	: V=1.01383, theta=-6.67657 -> V=0.99483, theta=2.59608
% INFO    : Bus 35	: V=1.06, theta=1.16387 -> V=1.06, theta=6.06393
% INFO    : Bus 36	: V=1.06, theta=3.93747 -> V=1.06, theta=7.36389
% INFO    : Bus 37	: V=1.02044, theta=-7.52316 -> V=1.02983, theta=-0.03871
% INFO    : Bus 38	: V=1.03973, theta=4.76525 -> V=1.03701, theta=8.4556
% INFO    : Bus 39	: V=1.02632, theta=-10.33157 -> V=0.99308, theta=-7.14396
% INFO    : 
% INFO    : === Generator Setpoint Replacement Notes ===
% INFO    : Gen at bus 30	: Pg=889.044, Qg=140.0 -> Pg=724.124, Qg=188.481
% INFO    : Gen at bus 30	: Vg=1.04686 -> Vg=1.05893
% INFO    : Gen at bus 31	: Pg=646.0, Qg=300.0 -> Pg=497.913, Qg=300.0
% INFO    : Gen at bus 31	: Vg=1.03899 -> Vg=1.04275
% INFO    : Gen at bus 32	: Pg=725.0, Qg=300.0 -> Pg=617.238, Qg=300.0
% INFO    : Gen at bus 32	: Vg=1.03812 -> Vg=1.04116
% INFO    : Gen at bus 33	: Pg=252.264, Qg=67.541 -> Pg=596.131, Qg=65.432
% INFO    : Gen at bus 33	: Vg=1.00137 -> Vg=0.98725
% INFO    : Gen at bus 34	: Pg=508.0, Qg=141.604 -> Pg=508.0, Qg=123.427
% INFO    : Gen at bus 34	: Vg=1.01383 -> Vg=0.99483
% INFO    : Gen at bus 35	: Pg=687.0, Qg=223.333 -> Pg=687.0, Qg=229.026
% INFO    : Gen at bus 35	: Vg=1.06 -> Vg=1.06
% INFO    : Gen at bus 36	: Pg=580.0, Qg=59.48 -> Pg=491.658, Qg=51.287
% INFO    : Gen at bus 36	: Vg=1.06 -> Vg=1.06
% INFO    : Gen at bus 37	: Pg=40.24, Qg=0.0 -> Pg=244.391, Qg=0.0
% INFO    : Gen at bus 37	: Vg=1.02044 -> Vg=1.02983
% INFO    : Gen at bus 38	: Pg=865.0, Qg=47.025 -> Pg=824.121, Qg=26.189
% INFO    : Gen at bus 38	: Vg=1.03973 -> Vg=1.03701
% INFO    : Gen at bus 39	: Pg=1100.0, Qg=-19.25 -> Pg=1100.0, Qg=-100.0
% INFO    : Gen at bus 39	: Vg=1.02632 -> Vg=0.99308
% INFO    : 
% INFO    : === Writing Matpower Case File Notes ===
