%%%%%%%%%%%%%%%%%%%%%%%%%%%%%%%%%%%%%%%%%%%%%%%%%%%%%%%%%%%%%%%%%%%%%%%%%%%
%%%%                                                                  %%%%%
%%%%    IEEE PES Power Grid Library - Optimal Power Flow - v17.07     %%%%%
%%%%          (https://github.com/power-grid-lib/pglib-opf)           %%%%%
%%%%             Benchmark Group - Small Angle Difference             %%%%%
%%%%                         27 - June - 2017                         %%%%%
%%%%                                                                  %%%%%
%%%%%%%%%%%%%%%%%%%%%%%%%%%%%%%%%%%%%%%%%%%%%%%%%%%%%%%%%%%%%%%%%%%%%%%%%%%
function mpc = pglib_opf_case3012wp_mp__sad
mpc.version = '2';
mpc.baseMVA = 100.0;

%% area data
%	area	refbus
mpc.areas = [
	1	 1;
];

%% bus data
%	bus_i	type	Pd	Qd	Gs	Bs	area	Vm	Va	baseKV	zone	Vmax	Vmin
mpc.bus = [
	1	 1	 0.0	 0.0	 0.0	 0.0	 1	    1.10696	   -0.30224	 220.0	 1	    1.11000	    0.95000;
	2	 1	 0.0	 0.0	 0.0	 0.0	 1	    1.10796	    1.24795	 220.0	 1	    1.11000	    0.95000;
	3	 1	 0.0	 0.0	 0.0	 0.0	 1	    1.07706	  -21.13011	 220.0	 1	    1.11000	    0.95000;
	4	 1	 0.0	 0.0	 0.0	 0.0	 1	    1.07699	  -21.14018	 220.0	 1	    1.11000	    0.95000;
	5	 1	 0.0	 0.0	 0.0	 0.0	 1	    1.08895	  -23.97040	 220.0	 1	    1.11000	    0.95000;
	6	 1	 0.0	 0.0	 0.0	 0.0	 1	    1.07936	   -4.70241	 220.0	 1	    1.11000	    0.95000;
	7	 1	 0.0	 0.0	 0.0	 0.0	 1	    1.07933	   -4.70353	 220.0	 1	    1.11000	    0.95000;
	8	 1	 0.0	 0.0	 0.0	 0.0	 1	    1.08746	  -13.47725	 220.0	 1	    1.11000	    0.95000;
	9	 1	 0.0	 0.0	 0.0	 0.0	 1	    1.08778	  -13.45594	 220.0	 1	    1.11000	    0.95000;
	10	 1	 0.0	 0.0	 0.0	 0.0	 1	    1.08889	  -17.58684	 220.0	 1	    1.11000	    0.95000;
	11	 1	 0.0	 0.0	 0.0	 0.0	 1	    1.02741	   -9.31865	 400.0	 1	    1.05000	    0.95000;
	12	 1	 0.0	 0.0	 0.0	 0.0	 1	    1.02748	   -9.30884	 400.0	 1	    1.05000	    0.95000;
	13	 1	 0.0	 0.0	 0.0	 0.0	 1	    1.01087	  -13.34191	 400.0	 1	    1.05000	    0.95000;
	14	 1	 0.0	 0.0	 0.0	 0.0	 1	    1.03722	  -13.76481	 220.0	 1	    1.11000	    0.95000;
	15	 1	 0.0	 0.0	 0.0	 0.0	 1	    1.03743	  -13.75461	 220.0	 1	    1.11000	    0.95000;
	16	 1	 0.0	 0.0	 0.0	 0.0	 1	    1.03748	  -13.74096	 220.0	 1	    1.11000	    0.95000;
	17	 1	 0.0	 0.0	 0.0	 0.0	 1	    1.01292	  -18.61944	 220.0	 1	    1.11000	    0.95000;
	18	 1	 0.0	 0.0	 0.0	 0.0	 1	    1.02069	  -18.11915	 220.0	 1	    1.11000	    0.95000;
	19	 1	 0.0	 0.0	 0.0	 0.0	 1	    1.03028	   -8.59312	 400.0	 1	    1.05000	    0.95000;
	20	 1	 0.0	 0.0	 0.0	 0.0	 1	    1.03034	   -8.58443	 400.0	 1	    1.05000	    0.95000;
	21	 1	 0.0	 0.0	 0.0	 0.0	 1	    1.01103	  -17.30107	 400.0	 1	    1.05000	    0.95000;
	22	 1	 0.0	 0.0	 0.0	 0.0	 1	    1.01963	  -12.59638	 400.0	 1	    1.05000	    0.95000;
	23	 1	 0.0	 0.0	 0.0	 0.0	 1	    1.01963	  -12.59638	 400.0	 1	    1.05000	    0.95000;
	24	 2	 10.05	 20.1	 0.0	 0.0	 1	    1.10230	  -14.57010	 220.0	 1	    1.11000	    0.95000;
	25	 2	 10.05	 20.1	 0.0	 0.0	 1	    1.10241	  -14.56492	 220.0	 1	    1.11000	    0.95000;
	26	 1	 0.0	 0.0	 0.0	 0.0	 1	    1.08896	   -3.83507	 220.0	 1	    1.11000	    0.95000;
	27	 1	 0.0	 0.0	 0.0	 0.0	 1	    1.08908	   -3.84331	 220.0	 1	    1.11000	    0.95000;
	28	 1	 0.0	 0.0	 0.0	 0.0	 1	    1.03997	  -15.20993	 220.0	 1	    1.11000	    0.95000;
	29	 1	 0.0	 0.0	 0.0	 0.0	 1	    1.03991	  -15.20880	 220.0	 1	    1.11000	    0.95000;
	30	 1	 0.0	 0.0	 0.0	 0.0	 1	    1.03546	  -13.12746	 220.0	 1	    1.11000	    0.95000;
	31	 1	 0.0	 0.0	 0.0	 0.0	 1	    1.03541	  -13.14221	 220.0	 1	    1.11000	    0.95000;
	32	 1	 0.0	 0.0	 0.0	 0.0	 1	    1.08707	   -2.15279	 220.0	 1	    1.11000	    0.95000;
	33	 1	 0.0	 0.0	 0.0	 0.0	 1	    1.08698	   -2.17223	 220.0	 1	    1.11000	    0.95000;
	34	 1	 0.0	 0.0	 0.0	 0.0	 1	    1.01879	  -11.27633	 400.0	 1	    1.05000	    0.95000;
	35	 1	 0.0	 0.0	 0.0	 0.0	 1	    1.01872	  -11.27991	 400.0	 1	    1.05000	    0.95000;
	36	 1	 0.0	 0.0	 0.0	 0.0	 1	    0.98281	  -13.84942	 400.0	 1	    1.05000	    0.95000;
	37	 3	 48.68	 86.21	 0.0	 0.0	 1	    1.11000	    0.00000	 220.0	 1	    1.11000	    0.95000;
	38	 2	 54.54	 89.93	 0.0	 0.0	 1	    1.11000	    1.54287	 220.0	 1	    1.11000	    0.95000;
	39	 2	 20.1	 40.19	 0.0	 0.0	 1	    1.11000	    1.54200	 220.0	 1	    1.11000	    0.95000;
	40	 2	 60.29	 120.57	 0.0	 0.0	 1	    1.05000	   -0.51487	 400.0	 1	    1.05000	    0.95000;
	41	 2	 60.29	 120.57	 0.0	 0.0	 1	    1.04995	   -0.50738	 400.0	 1	    1.05000	    0.95000;
	42	 1	 0.0	 0.0	 0.0	 0.0	 1	    1.02490	  -14.81226	 220.0	 1	    1.11000	    0.95000;
	43	 1	 0.0	 0.0	 0.0	 0.0	 1	    1.02478	  -14.81780	 220.0	 1	    1.11000	    0.95000;
	44	 1	 0.0	 0.0	 0.0	 0.0	 1	    1.05000	   -2.50318	 400.0	 1	    1.05000	    0.95000;
	45	 1	 0.0	 0.0	 0.0	 0.0	 1	    1.04998	   -2.50689	 400.0	 1	    1.05000	    0.95000;
	46	 1	 0.0	 0.0	 0.0	 0.0	 1	    1.03319	  -14.12506	 220.0	 1	    1.11000	    0.95000;
	47	 1	 0.0	 0.0	 0.0	 0.0	 1	    1.06426	   -6.34913	 220.0	 1	    1.11000	    0.95000;
	48	 1	 0.0	 0.0	 0.0	 0.0	 1	    1.06427	   -6.35994	 220.0	 1	    1.11000	    0.95000;
	49	 1	 0.0	 0.0	 0.0	 0.0	 1	    1.09262	   -8.77188	 220.0	 2	    1.11000	    0.95000;
	50	 1	 0.0	 0.0	 0.0	 0.0	 1	    1.08851	  -10.82102	 220.0	 2	    1.11000	    0.95000;
	51	 1	 0.0	 0.0	 0.0	 0.0	 1	    1.09881	   -9.02563	 220.0	 2	    1.11000	    0.95000;
	52	 1	 0.0	 0.0	 0.0	 0.0	 1	    1.09879	   -9.03209	 220.0	 2	    1.11000	    0.95000;
	53	 1	 0.0	 0.0	 0.0	 0.0	 1	    1.07247	  -10.96864	 220.0	 2	    1.11000	    0.95000;
	54	 1	 3.23	 1.0	 0.0	 0.0	 1	    1.10153	   -8.59242	 220.0	 2	    1.11000	    0.95000;
	55	 1	 0.0	 0.0	 0.0	 0.0	 1	    1.10160	   -8.59656	 220.0	 2	    1.11000	    0.95000;
	56	 1	 0.0	 0.0	 0.0	 0.0	 1	    1.03623	   -8.10256	 400.0	 2	    1.05000	    0.95000;
	57	 2	 26.12	 60.29	 0.0	 0.0	 1	    1.10993	   -4.92573	 220.0	 2	    1.11000	    0.95000;
	58	 2	 54.26	 120.57	 0.0	 0.0	 1	    1.11000	   -4.92288	 220.0	 2	    1.11000	    0.95000;
	59	 2	 13.06	 30.14	 0.0	 0.0	 1	    1.11000	   -4.93573	 220.0	 2	    1.11000	    0.95000;
	60	 2	 26.12	 50.24	 0.0	 0.0	 1	    1.05000	   -4.51329	 400.0	 2	    1.05000	    0.95000;
	61	 2	 26.12	 50.24	 0.0	 0.0	 1	    1.05000	   -4.50257	 400.0	 2	    1.05000	    0.95000;
	62	 1	 0.0	 0.0	 0.0	 0.0	 1	    1.09596	   -9.27633	 220.0	 2	    1.11000	    0.95000;
	63	 1	 0.0	 0.0	 0.0	 0.0	 1	    1.04436	  -12.36110	 400.0	 2	    1.05000	    0.95000;
	64	 1	 0.0	 0.0	 0.0	 0.0	 1	    1.04436	  -12.36155	 400.0	 2	    1.05000	    0.95000;
	65	 1	 0.0	 0.0	 0.0	 0.0	 1	    1.04762	   -6.14410	 400.0	 2	    1.05000	    0.95000;
	66	 1	 0.0	 0.0	 0.0	 0.0	 1	    1.07839	   -9.32428	 220.0	 2	    1.11000	    0.95000;
	67	 1	 0.0	 0.0	 0.0	 0.0	 1	    1.07839	   -9.31937	 220.0	 2	    1.11000	    0.95000;
	68	 1	 0.0	 0.0	 0.0	 0.0	 1	    1.04486	   -7.10081	 400.0	 2	    1.05000	    0.95000;
	69	 1	 0.0	 0.0	 0.0	 0.0	 1	    1.04484	   -7.10673	 400.0	 2	    1.05000	    0.95000;
	70	 2	 13.06	 30.14	 0.0	 0.0	 1	    1.10179	   -8.09289	 220.0	 2	    1.11000	    0.95000;
	71	 2	 13.06	 30.14	 0.0	 0.0	 1	    1.10168	   -8.09483	 220.0	 2	    1.11000	    0.95000;
	72	 2	 13.06	 30.14	 0.0	 0.0	 1	    1.04255	   -7.52803	 400.0	 2	    1.05000	    0.95000;
	73	 2	 26.12	 60.29	 0.0	 0.0	 1	    1.04260	   -7.52487	 400.0	 2	    1.05000	    0.95000;
	74	 2	 149.71	 60.29	 0.0	 0.0	 1	    1.10007	   -6.53639	 220.0	 2	    1.11000	    0.95000;
	75	 1	 29.14	 10.05	 0.0	 0.0	 1	    1.10008	   -6.53979	 220.0	 2	    1.11000	    0.95000;
	76	 1	 0.0	 0.0	 0.0	 0.0	 1	    1.09696	   -9.46806	 220.0	 2	    1.11000	    0.95000;
	77	 1	 0.0	 0.0	 0.0	 0.0	 1	    1.09698	   -9.46523	 220.0	 2	    1.11000	    0.95000;
	78	 1	 0.0	 0.0	 0.0	 0.0	 1	    1.10208	   -7.23613	 220.0	 2	    1.11000	    0.95000;
	79	 1	 0.0	 0.0	 0.0	 0.0	 1	    1.10208	   -7.23278	 220.0	 2	    1.11000	    0.95000;
	80	 1	 0.0	 0.0	 0.0	 0.0	 1	    1.04955	   -9.79198	 400.0	 2	    1.05000	    0.95000;
	81	 1	 0.0	 0.0	 0.0	 0.0	 1	    1.04952	   -9.80429	 400.0	 2	    1.05000	    0.95000;
	82	 1	 0.0	 0.0	 0.0	 0.0	 1	    1.09629	   -9.36290	 220.0	 2	    1.11000	    0.95000;
	83	 1	 0.0	 0.0	 0.0	 0.0	 1	    1.09700	   -9.23784	 220.0	 2	    1.11000	    0.95000;
	84	 1	 0.0	 0.0	 0.0	 0.0	 1	    1.07990	   -8.19572	 220.0	 2	    1.11000	    0.95000;
	85	 1	 0.0	 0.0	 0.0	 0.0	 1	    1.09301	   -5.83363	 220.0	 3	    1.11000	    0.95000;
	86	 1	 9.35	 0.0	 0.0	 0.0	 1	    1.09584	  -10.24401	 220.0	 3	    1.11000	    0.95000;
	87	 1	 8.18	 0.0	 0.0	 0.0	 1	    1.09584	  -10.23807	 220.0	 3	    1.11000	    0.95000;
	88	 1	 0.0	 0.0	 0.0	 0.0	 1	    1.09827	   -8.86490	 220.0	 3	    1.11000	    0.95000;
	89	 1	 0.0	 0.0	 0.0	 0.0	 1	    1.09838	   -8.85228	 220.0	 3	    1.11000	    0.95000;
	90	 1	 0.0	 0.0	 0.0	 0.0	 1	    1.10998	   -7.16387	 220.0	 3	    1.11000	    0.95000;
	91	 1	 0.0	 0.0	 0.0	 0.0	 1	    1.11000	   -7.16735	 220.0	 3	    1.11000	    0.95000;
	92	 1	 0.0	 0.0	 0.0	 0.0	 1	    1.07444	  -10.17730	 220.0	 3	    1.11000	    0.95000;
	93	 1	 0.0	 0.0	 0.0	 0.0	 1	    1.07419	  -10.18452	 220.0	 3	    1.11000	    0.95000;
	94	 2	 28.13	 70.33	 0.0	 0.0	 1	    1.10707	   -8.03248	 220.0	 3	    1.11000	    0.95000;
	95	 2	 42.2	 103.49	 0.0	 0.0	 1	    1.10937	   -7.53186	 220.0	 3	    1.11000	    0.95000;
	96	 1	 7.72	 -24.99	 0.0	 0.0	 1	    1.09469	   -8.63246	 220.0	 3	    1.11000	    0.95000;
	97	 1	 0.0	 0.0	 0.0	 0.0	 1	    1.09467	   -8.63557	 220.0	 3	    1.11000	    0.95000;
	98	 2	 32.15	 142.68	 0.0	 0.0	 1	    1.04171	   -6.28661	 400.0	 3	    1.05000	    0.95000;
	99	 1	 0.0	 0.0	 0.0	 0.0	 1	    1.04168	   -6.30518	 400.0	 3	    1.05000	    0.95000;
	100	 1	 0.0	 0.0	 0.0	 0.0	 1	    1.06367	   -7.31937	 220.0	 3	    1.11000	    0.95000;
	101	 1	 0.0	 0.0	 0.0	 0.0	 1	    1.10855	   -7.42378	 220.0	 3	    1.11000	    0.95000;
	102	 1	 0.0	 0.0	 0.0	 0.0	 1	    1.10854	   -7.42479	 220.0	 3	    1.11000	    0.95000;
	103	 1	 45.11	 7.94	 0.0	 0.0	 1	    1.09592	   -5.85463	 220.0	 3	    1.11000	    0.95000;
	104	 1	 0.0	 0.0	 0.0	 0.0	 1	    1.09586	   -5.86335	 220.0	 3	    1.11000	    0.95000;
	105	 1	 0.0	 0.0	 0.0	 0.0	 1	    1.10368	   -7.30135	 220.0	 3	    1.11000	    0.95000;
	106	 1	 0.0	 0.0	 0.0	 0.0	 1	    1.10361	   -7.30781	 220.0	 3	    1.11000	    0.95000;
	107	 1	 0.0	 0.0	 0.0	 0.0	 1	    1.10015	   -5.24159	 220.0	 3	    1.11000	    0.95000;
	108	 1	 0.0	 0.0	 0.0	 0.0	 1	    1.10014	   -5.24195	 220.0	 3	    1.11000	    0.95000;
	109	 1	 0.0	 0.0	 0.0	 0.0	 1	    1.04301	   -3.22730	 400.0	 3	    1.05000	    0.95000;
	110	 1	 0.0	 0.0	 0.0	 0.0	 1	    1.04301	   -3.23019	 400.0	 3	    1.05000	    0.95000;
	111	 1	 0.0	 0.0	 0.0	 0.0	 1	    1.10669	   -7.11745	 220.0	 3	    1.11000	    0.95000;
	112	 1	 0.0	 0.0	 0.0	 0.0	 1	    1.10671	   -7.11760	 220.0	 3	    1.11000	    0.95000;
	113	 1	 0.0	 0.0	 0.0	 0.0	 1	    1.08286	   -6.96397	 220.0	 3	    1.11000	    0.95000;
	114	 1	 0.0	 0.0	 0.0	 0.0	 1	    1.08277	   -6.96596	 220.0	 3	    1.11000	    0.95000;
	115	 2	 29.36	 18.51	 0.0	 0.0	 1	    1.10111	   -7.69583	 220.0	 3	    1.11000	    0.95000;
	116	 1	 0.0	 0.0	 0.0	 0.0	 1	    1.10108	   -7.69642	 220.0	 3	    1.11000	    0.95000;
	117	 1	 0.0	 0.0	 0.0	 0.0	 1	    1.09588	  -10.21886	 220.0	 3	    1.11000	    0.95000;
	118	 1	 0.0	 0.0	 0.0	 0.0	 1	    1.09589	  -10.22208	 220.0	 3	    1.11000	    0.95000;
	119	 1	 0.0	 0.0	 0.0	 0.0	 1	    1.06051	  -10.53849	 220.0	 3	    1.11000	    0.95000;
	120	 1	 0.0	 0.0	 0.0	 0.0	 1	    1.06048	  -10.54006	 220.0	 3	    1.11000	    0.95000;
	121	 2	 0.0	 0.0	 0.0	 0.0	 1	    1.10997	   -7.10855	 220.0	 3	    1.11000	    0.95000;
	122	 2	 10.05	 44.21	 0.0	 0.0	 1	    1.11000	   -7.11158	 220.0	 3	    1.11000	    0.95000;
	123	 2	 7.03	 18.09	 0.0	 0.0	 1	    1.10996	   -7.02815	 220.0	 3	    1.11000	    0.95000;
	124	 2	 8.04	 21.1	 0.0	 0.0	 1	    1.11000	   -7.02396	 220.0	 3	    1.11000	    0.95000;
	125	 1	 0.0	 0.0	 0.0	 0.0	 1	    1.09636	   -7.74464	 220.0	 3	    1.11000	    0.95000;
	126	 1	 71.54	 7.94	 0.0	 0.0	 1	    1.09641	   -7.75332	 220.0	 3	    1.11000	    0.95000;
	127	 1	 0.0	 0.0	 0.0	 0.0	 1	    1.07860	  -10.15303	 220.0	 3	    1.11000	    0.95000;
	128	 1	 0.0	 0.0	 0.0	 0.0	 1	    1.08855	   -7.76282	 220.0	 3	    1.11000	    0.95000;
	129	 1	 0.0	 0.0	 0.0	 0.0	 1	    1.08859	   -7.76706	 220.0	 3	    1.11000	    0.95000;
	130	 1	 0.0	 0.0	 0.0	 0.0	 1	    1.09319	   -8.84808	 220.0	 3	    1.11000	    0.95000;
	131	 1	 0.0	 0.0	 0.0	 0.0	 1	    1.09329	   -8.84160	 220.0	 3	    1.11000	    0.95000;
	132	 1	 0.0	 0.0	 0.0	 0.0	 1	    1.04006	   -7.63335	 400.0	 3	    1.05000	    0.95000;
	133	 1	 0.0	 0.0	 0.0	 0.0	 1	    1.04006	   -7.63335	 400.0	 3	    1.05000	    0.95000;
	134	 2	 0.0	 0.0	 0.0	 0.0	 1	    1.10658	   -8.13263	 220.0	 3	    1.11000	    0.95000;
	135	 2	 9.04	 20.1	 0.0	 0.0	 1	    1.10653	   -8.13379	 220.0	 3	    1.11000	    0.95000;
	136	 2	 6.03	 15.07	 0.0	 0.0	 1	    1.09273	   -9.27069	 220.0	 3	    1.11000	    0.95000;
	137	 1	 0.0	 0.0	 0.0	 0.0	 1	    1.09274	   -9.27731	 220.0	 3	    1.11000	    0.95000;
	138	 1	 0.0	 0.0	 0.0	 0.0	 1	    1.04738	   -9.98880	 400.0	 3	    1.05000	    0.95000;
	139	 1	 0.0	 0.0	 0.0	 0.0	 1	    1.04741	   -9.99429	 400.0	 3	    1.05000	    0.95000;
	140	 1	 0.0	 0.0	 0.0	 0.0	 1	    1.04999	   -7.20539	 400.0	 3	    1.05000	    0.95000;
	141	 1	 0.0	 0.0	 0.0	 0.0	 1	    1.05000	   -7.19801	 400.0	 3	    1.05000	    0.95000;
	142	 1	 0.0	 0.0	 0.0	 0.0	 1	    1.07614	  -10.35595	 220.0	 3	    1.11000	    0.95000;
	143	 1	 0.0	 0.0	 0.0	 0.0	 1	    1.07620	  -10.35264	 220.0	 3	    1.11000	    0.95000;
	144	 2	 18.34	 15.86	 0.0	 0.0	 1	    1.11000	   -5.90646	 220.0	 3	    1.11000	    0.95000;
	145	 2	 41.01	 43.07	 0.0	 0.0	 1	    1.11000	   -5.89175	 220.0	 3	    1.11000	    0.95000;
	146	 2	 28.13	 66.31	 0.0	 0.0	 1	    1.03654	   -7.25229	 400.0	 3	    1.05000	    0.95000;
	147	 1	 0.0	 0.0	 0.0	 0.0	 1	    1.03660	   -7.24966	 400.0	 3	    1.05000	    0.95000;
	148	 1	 0.0	 0.0	 0.0	 0.0	 1	    1.09459	   -6.03477	 220.0	 3	    1.11000	    0.95000;
	149	 1	 0.0	 0.0	 0.0	 0.0	 1	    1.09467	   -6.03351	 220.0	 3	    1.11000	    0.95000;
	150	 1	 0.0	 0.0	 0.0	 0.0	 1	    1.10951	   -7.36242	 220.0	 3	    1.11000	    0.95000;
	151	 1	 0.0	 0.0	 0.0	 0.0	 1	    1.09803	   -5.73120	 220.0	 3	    1.11000	    0.95000;
	152	 2	 0.0	 0.0	 0.0	 0.0	 1	    1.07447	  -10.17753	 220.0	 3	    1.11000	    0.95000;
	153	 2	 0.0	 0.0	 0.0	 0.0	 1	    1.07422	  -10.18475	 220.0	 3	    1.11000	    0.95000;
	154	 2	 7.84	 20.1	 0.0	 0.0	 1	    1.09676	   -8.29310	 220.0	 4	    1.11000	    0.95000;
	155	 2	 8.04	 20.1	 0.0	 0.0	 1	    1.09677	   -8.29995	 220.0	 4	    1.11000	    0.95000;
	156	 1	 0.0	 0.0	 0.0	 0.0	 1	    1.06215	  -10.14202	 220.0	 4	    1.11000	    0.95000;
	157	 1	 0.0	 0.0	 0.0	 0.0	 1	    1.06212	  -10.14660	 220.0	 4	    1.11000	    0.95000;
	158	 1	 0.0	 0.0	 0.0	 0.0	 1	    1.05371	  -12.55327	 220.0	 4	    1.11000	    0.95000;
	159	 1	 0.0	 0.0	 0.0	 0.0	 1	    1.07943	   -7.78779	 220.0	 4	    1.11000	    0.95000;
	160	 1	 0.0	 0.0	 0.0	 0.0	 1	    1.07934	   -7.80060	 220.0	 4	    1.11000	    0.95000;
	161	 1	 0.0	 0.0	 0.0	 0.0	 1	    1.02415	   -8.97096	 400.0	 4	    1.05000	    0.95000;
	162	 1	 0.0	 0.0	 0.0	 0.0	 1	    1.02411	   -8.97876	 400.0	 4	    1.05000	    0.95000;
	163	 1	 0.0	 0.0	 0.0	 0.0	 1	    1.04381	  -18.86538	 220.0	 4	    1.11000	    0.95000;
	164	 1	 0.0	 0.0	 0.0	 0.0	 1	    1.07804	  -16.14068	 220.0	 4	    1.11000	    0.95000;
	165	 1	 0.0	 0.0	 0.0	 0.0	 1	    1.07804	  -16.14068	 220.0	 4	    1.11000	    0.95000;
	166	 1	 0.0	 0.0	 0.0	 0.0	 1	    1.08328	  -16.48295	 220.0	 4	    1.11000	    0.95000;
	167	 1	 0.0	 0.0	 0.0	 0.0	 1	    1.08328	  -16.48295	 220.0	 4	    1.11000	    0.95000;
	168	 1	 0.0	 0.0	 0.0	 0.0	 1	    1.05317	  -12.86308	 220.0	 4	    1.11000	    0.95000;
	169	 2	 0.0	 0.0	 0.0	 0.0	 1	    1.08860	  -11.77047	 220.0	 4	    1.11000	    0.95000;
	170	 2	 0.0	 0.0	 0.0	 0.0	 1	    1.08861	  -11.77911	 220.0	 4	    1.11000	    0.95000;
	171	 1	 0.0	 0.0	 0.0	 0.0	 1	    1.11000	  -10.56727	 220.0	 4	    1.11000	    0.95000;
	172	 2	 12.06	 30.14	 0.0	 0.0	 1	    1.10654	  -14.04797	 220.0	 4	    1.11000	    0.95000;
	173	 2	 9.39	 2.43	 0.0	 0.0	 1	    1.10646	  -14.04863	 220.0	 4	    1.11000	    0.95000;
	174	 2	 12.06	 30.14	 0.0	 0.0	 1	    1.05000	  -12.48913	 400.0	 4	    1.05000	    0.95000;
	175	 2	 24.11	 60.29	 0.0	 0.0	 1	    1.05000	  -12.48422	 400.0	 4	    1.05000	    0.95000;
	176	 1	 0.0	 0.0	 0.0	 0.0	 1	    1.01033	  -18.52940	 220.0	 4	    1.11000	    0.95000;
	177	 1	 0.0	 0.0	 0.0	 0.0	 1	    1.01045	  -18.53227	 220.0	 4	    1.11000	    0.95000;
	178	 1	 0.0	 0.0	 0.0	 0.0	 1	    1.06336	  -13.08320	 220.0	 4	    1.11000	    0.95000;
	179	 1	 0.0	 0.0	 0.0	 0.0	 1	    1.06338	  -13.08217	 220.0	 4	    1.11000	    0.95000;
	180	 2	 26.12	 64.3	 0.0	 0.0	 1	    1.11000	   -3.08605	 220.0	 4	    1.11000	    0.95000;
	181	 2	 26.12	 64.3	 0.0	 0.0	 1	    1.11000	   -3.09279	 220.0	 4	    1.11000	    0.95000;
	182	 2	 26.12	 64.51	 0.0	 0.0	 1	    1.11000	   -3.07427	 220.0	 4	    1.11000	    0.95000;
	183	 2	 26.12	 64.51	 0.0	 0.0	 1	    1.04949	   -3.16996	 400.0	 4	    1.05000	    0.95000;
	184	 1	 0.0	 0.0	 0.0	 0.0	 1	    1.04946	   -3.16952	 400.0	 4	    1.05000	    0.95000;
	185	 1	 0.0	 0.0	 0.0	 0.0	 1	    1.08174	  -16.27121	 220.0	 4	    1.11000	    0.95000;
	186	 1	 0.0	 0.0	 0.0	 0.0	 1	    1.08174	  -16.27121	 220.0	 4	    1.11000	    0.95000;
	187	 1	 0.0	 0.0	 0.0	 0.0	 1	    1.00978	  -11.67785	 400.0	 4	    1.05000	    0.95000;
	188	 1	 0.0	 0.0	 0.0	 0.0	 1	    0.98012	  -16.68054	 400.0	 4	    1.05000	    0.95000;
	189	 1	 0.0	 0.0	 0.0	 0.0	 1	    1.02139	   -9.96796	 400.0	 4	    1.05000	    0.95000;
	190	 1	 0.0	 0.0	 0.0	 0.0	 1	    1.02139	   -9.96764	 400.0	 4	    1.05000	    0.95000;
	191	 2	 12.06	 30.14	 0.0	 0.0	 1	    1.09038	  -11.81828	 220.0	 4	    1.11000	    0.95000;
	192	 2	 14.66	 30.65	 0.0	 0.0	 1	    1.09012	  -11.85484	 220.0	 4	    1.11000	    0.95000;
	193	 2	 38.18	 64.3	 0.0	 0.0	 1	    1.03879	   -5.31861	 400.0	 4	    1.05000	    0.95000;
	194	 1	 0.0	 0.0	 0.0	 0.0	 1	    1.02549	  -23.93012	 220.0	 4	    1.11000	    0.95000;
	195	 1	 0.0	 0.0	 0.0	 0.0	 1	    1.02551	  -23.93355	 220.0	 4	    1.11000	    0.95000;
	196	 1	 0.0	 0.0	 0.0	 0.0	 1	    1.07746	  -16.23666	 220.0	 4	    1.11000	    0.95000;
	197	 1	 0.0	 0.0	 0.0	 0.0	 1	    1.07747	  -16.23811	 220.0	 4	    1.11000	    0.95000;
	198	 1	 0.0	 0.0	 0.0	 0.0	 1	    1.03831	  -19.36373	 220.0	 4	    1.11000	    0.95000;
	199	 1	 0.0	 0.0	 0.0	 0.0	 1	    1.03829	  -19.36314	 220.0	 4	    1.11000	    0.95000;
	200	 1	 0.0	 0.0	 0.0	 0.0	 1	    0.99271	  -18.83986	 400.0	 4	    1.05000	    0.95000;
	201	 1	 0.0	 0.0	 0.0	 0.0	 1	    0.99271	  -18.83986	 400.0	 4	    1.05000	    0.95000;
	202	 1	 0.0	 0.0	 0.0	 0.0	 1	    1.02861	  -13.85026	 220.0	 4	    1.11000	    0.95000;
	203	 1	 0.0	 0.0	 0.0	 0.0	 1	    1.02860	  -13.84751	 220.0	 4	    1.11000	    0.95000;
	204	 1	 0.0	 0.0	 0.0	 0.0	 1	    1.02817	  -20.04303	 220.0	 4	    1.11000	    0.95000;
	205	 1	 0.0	 0.0	 0.0	 0.0	 1	    1.06246	   -9.87757	 220.0	 4	    1.11000	    0.95000;
	206	 1	 0.0	 0.0	 0.0	 0.0	 1	    1.06246	   -9.88503	 220.0	 4	    1.11000	    0.95000;
	207	 1	 0.0	 0.0	 0.0	 0.0	 1	    1.05709	  -10.01601	 220.0	 4	    1.11000	    0.95000;
	208	 2	 3.14	 1.51	 0.0	 0.0	 1	    1.08227	  -11.66083	 220.0	 4	    1.11000	    0.95000;
	209	 1	 0.0	 0.0	 0.0	 0.0	 1	    1.01970	  -14.79753	 220.0	 4	    1.11000	    0.95000;
	210	 1	 0.0	 0.0	 0.0	 0.0	 1	    1.01968	  -14.79496	 220.0	 4	    1.11000	    0.95000;
	211	 1	 0.0	 0.0	 0.0	 0.0	 1	    1.04487	  -20.21564	 220.0	 5	    1.11000	    0.95000;
	212	 1	 0.0	 0.0	 0.0	 0.0	 1	    1.11000	  -19.09247	 220.0	 5	    1.11000	    0.95000;
	213	 1	 0.0	 0.0	 0.0	 0.0	 1	    1.03115	  -17.31365	 400.0	 5	    1.05000	    0.95000;
	214	 1	 0.0	 0.0	 0.0	 0.0	 1	    1.03122	  -17.30774	 400.0	 5	    1.05000	    0.95000;
	215	 1	 0.0	 0.0	 0.0	 0.0	 1	    1.01350	  -19.14039	 400.0	 5	    1.05000	    0.95000;
	216	 1	 0.0	 0.0	 0.0	 0.0	 1	    1.01351	  -19.14440	 400.0	 5	    1.05000	    0.95000;
	217	 1	 0.0	 0.0	 0.0	 0.0	 1	    1.01736	  -24.55921	 400.0	 5	    1.05000	    0.95000;
	218	 1	 0.0	 0.0	 0.0	 0.0	 1	    1.01708	  -22.94628	 220.0	 5	    1.11000	    0.95000;
	219	 1	 0.0	 0.0	 0.0	 0.0	 1	    1.01707	  -22.94839	 220.0	 5	    1.11000	    0.95000;
	220	 1	 0.0	 0.0	 0.0	 0.0	 1	    1.05174	  -20.34662	 220.0	 5	    1.11000	    0.95000;
	221	 1	 0.0	 0.0	 0.0	 0.0	 1	    1.05168	  -20.35004	 220.0	 5	    1.11000	    0.95000;
	222	 1	 0.0	 0.0	 0.0	 0.0	 1	    1.00386	  -17.77193	 400.0	 5	    1.05000	    0.95000;
	223	 1	 0.0	 0.0	 0.0	 0.0	 1	    1.00386	  -17.77193	 400.0	 5	    1.05000	    0.95000;
	224	 1	 0.0	 0.0	 0.0	 0.0	 1	    1.01986	  -23.17716	 400.0	 5	    1.05000	    0.95000;
	225	 1	 0.0	 0.0	 0.0	 0.0	 1	    1.05302	  -19.34352	 220.0	 5	    1.11000	    0.95000;
	226	 1	 0.0	 0.0	 0.0	 0.0	 1	    1.05304	  -19.33832	 220.0	 5	    1.11000	    0.95000;
	227	 1	 0.0	 0.0	 0.0	 0.0	 1	    1.06924	  -22.96378	 220.0	 5	    1.11000	    0.95000;
	228	 1	 0.0	 0.0	 0.0	 0.0	 1	    1.05736	  -21.53235	 220.0	 5	    1.11000	    0.95000;
	229	 1	 0.0	 0.0	 0.0	 0.0	 1	    1.02119	  -21.32018	 400.0	 5	    1.05000	    0.95000;
	230	 1	 0.0	 0.0	 0.0	 0.0	 1	    1.02116	  -21.32051	 400.0	 5	    1.05000	    0.95000;
	231	 1	 0.0	 0.0	 0.0	 0.0	 1	    1.04593	  -24.99157	 400.0	 5	    1.05000	    0.95000;
	232	 1	 0.0	 0.0	 0.0	 0.0	 1	    1.05152	  -21.61868	 220.0	 5	    1.11000	    0.95000;
	233	 1	 0.0	 0.0	 0.0	 0.0	 1	    1.05160	  -21.61166	 220.0	 5	    1.11000	    0.95000;
	234	 1	 0.0	 0.0	 0.0	 70.0	 1	    1.03041	  -17.95227	 400.0	 5	    1.25000	    0.75000;
	235	 1	 0.0	 0.0	 0.0	 0.0	 1	    1.03043	  -17.94991	 400.0	 5	    1.05000	    0.95000;
	236	 1	 0.0	 0.0	 0.0	 0.0	 1	    1.02824	  -21.55219	 220.0	 5	    1.11000	    0.95000;
	237	 1	 0.0	 0.0	 0.0	 0.0	 1	    1.02820	  -21.55174	 220.0	 5	    1.11000	    0.95000;
	238	 1	 0.0	 0.0	 0.0	 0.0	 1	    1.03459	  -19.61981	 220.0	 5	    1.11000	    0.95000;
	239	 1	 0.0	 0.0	 0.0	 0.0	 1	    1.03450	  -19.63524	 220.0	 5	    1.11000	    0.95000;
	240	 2	 2.01	 40.19	 0.0	 0.0	 1	    1.00956	  -17.65305	 400.0	 5	    1.05000	    0.95000;
	241	 2	 5.55	 30.14	 0.0	 0.0	 1	    1.00952	  -17.65249	 400.0	 5	    1.05000	    0.95000;
	242	 1	 0.0	 0.0	 0.0	 0.0	 1	    1.06881	  -21.25742	 220.0	 5	    1.11000	    0.95000;
	243	 1	 0.0	 0.0	 0.0	 0.0	 1	    1.06890	  -21.25055	 220.0	 5	    1.11000	    0.95000;
	244	 2	 0.0	 0.0	 0.0	 0.0	 0	    1.11000	    0.75134	 220.0	 0	    1.11000	    0.95000;
	245	 1	 9.94	 2.01	 0.0	 0.0	 1	    1.06075	  -21.66616	 110.0	 1	    1.12000	    0.95000;
	246	 1	 8.89	 0.0	 0.0	 0.0	 1	    1.08043	  -26.45956	 110.0	 1	    1.12000	    0.95000;
	247	 1	 8.89	 0.0	 0.0	 0.0	 1	    1.08034	  -26.45502	 110.0	 1	    1.12000	    0.95000;
	248	 1	 6.09	 1.0	 0.0	 0.0	 1	    1.09785	  -17.25267	 110.0	 1	    1.12000	    0.95000;
	249	 1	 6.09	 2.01	 0.0	 0.0	 1	    1.09776	  -17.27500	 110.0	 1	    1.12000	    0.95000;
	250	 1	 2.94	 2.51	 0.0	 0.0	 1	    1.02980	  -21.62822	 110.0	 1	    1.12000	    0.95000;
	251	 1	 6.29	 5.83	 0.0	 0.0	 1	    1.02976	  -21.63082	 110.0	 1	    1.12000	    0.95000;
	252	 1	 5.18	 1.31	 0.0	 0.0	 1	    1.09119	   -2.18949	 110.0	 1	    1.12000	    0.95000;
	253	 1	 6.2	 1.0	 0.0	 0.0	 1	    1.07880	   -3.30964	 110.0	 1	    1.12000	    0.95000;
	254	 2	 -11.53	 119.74	 0.0	 0.0	 1	    1.10625	  -18.02932	 110.0	 1	    1.12000	    0.95000;
	255	 1	 23.02	 2.01	 0.0	 0.0	 1	    1.10650	  -18.28847	 110.0	 1	    1.12000	    0.95000;
	256	 1	 14.65	 1.51	 0.0	 0.0	 1	    1.10807	  -18.43679	 110.0	 1	    1.12000	    0.95000;
	257	 1	 16.74	 0.0	 0.0	 0.0	 1	    1.10777	  -18.64443	 110.0	 1	    1.12000	    0.95000;
	258	 1	 26.16	 3.01	 0.0	 0.0	 1	    1.10634	  -18.75104	 110.0	 1	    1.12000	    0.95000;
	259	 1	 11.51	 2.01	 0.0	 0.0	 1	    1.10615	  -18.25282	 110.0	 1	    1.12000	    0.95000;
	260	 1	 5.23	 1.0	 0.0	 0.0	 1	    1.10625	  -18.54894	 110.0	 1	    1.12000	    0.95000;
	261	 1	 5.23	 1.0	 0.0	 0.0	 1	    1.10615	  -18.52567	 110.0	 1	    1.12000	    0.95000;
	262	 1	 0.0	 0.0	 0.0	 0.0	 1	    1.10809	  -18.56790	 110.0	 1	    1.12000	    0.95000;
	263	 1	 7.72	 1.51	 0.0	 0.0	 1	    1.07934	  -20.05573	 110.0	 1	    1.12000	    0.95000;
	264	 1	 5.59	 1.0	 0.0	 0.0	 1	    1.07941	  -20.04856	 110.0	 1	    1.12000	    0.95000;
	265	 1	 5.05	 0.5	 0.0	 0.0	 1	    1.09549	  -18.93515	 110.0	 1	    1.12000	    0.95000;
	266	 1	 5.05	 0.5	 0.0	 0.0	 1	    1.09540	  -18.94943	 110.0	 1	    1.12000	    0.95000;
	267	 2	 0.06	 0.0	 0.0	 0.0	 1	    1.05900	  -15.11586	 110.0	 1	    1.12000	    0.95000;
	268	 2	 10.87	 2.51	 0.0	 0.0	 1	    1.07464	  -10.64699	 110.0	 1	    1.12000	    0.95000;
	269	 1	 20.71	 5.63	 0.0	 0.0	 1	    1.09258	  -19.02489	 110.0	 1	    1.12000	    0.95000;
	270	 1	 0.91	 0.4	 0.0	 0.0	 1	    1.09367	   -4.32931	 110.0	 1	    1.12000	    0.95000;
	271	 1	 1.21	 -0.9	 0.0	 0.0	 1	    1.08825	   -0.72486	 110.0	 1	    1.12000	    0.95000;
	272	 1	 5.66	 0.3	 0.0	 0.0	 1	    1.06305	  -19.29678	 110.0	 1	    1.12000	    0.95000;
	273	 1	 5.23	 0.2	 0.0	 0.0	 1	    1.10949	  -23.00428	 110.0	 1	    1.12000	    0.95000;
	274	 1	 24.07	 2.01	 0.0	 0.0	 1	    1.08572	  -20.23493	 110.0	 1	    1.12000	    0.95000;
	275	 1	 4.17	 2.11	 0.0	 0.0	 1	    1.11035	   -7.65689	 110.0	 1	    1.12000	    0.95000;
	276	 1	 8.33	 1.51	 0.0	 0.0	 1	    1.06271	  -13.03096	 110.0	 1	    1.12000	    0.95000;
	277	 1	 3.15	 0.5	 0.0	 0.0	 1	    1.10096	  -19.03120	 110.0	 1	    1.12000	    0.95000;
	278	 2	 3.86	 1.61	 0.0	 0.0	 1	    1.11851	   -7.34486	 110.0	 1	    1.12000	    0.95000;
	279	 2	 3.86	 1.61	 0.0	 0.0	 1	    1.11989	   -8.23411	 110.0	 1	    1.12000	    0.95000;
	280	 1	 24.36	 6.53	 0.0	 0.0	 1	    1.08326	  -19.54827	 110.0	 1	    1.12000	    0.95000;
	281	 1	 10.36	 2.21	 0.0	 0.0	 1	    1.07996	   -3.17211	 110.0	 1	    1.12000	    0.95000;
	282	 1	 6.09	 0.5	 0.0	 0.0	 1	    1.07662	  -11.50149	 110.0	 1	    1.12000	    0.95000;
	283	 1	 3.25	 0.2	 0.0	 0.0	 1	    1.07660	  -11.49292	 110.0	 1	    1.12000	    0.95000;
	284	 1	 13.51	 7.03	 0.0	 0.0	 1	    1.07537	   -2.32614	 110.0	 1	    1.12000	    0.95000;
	285	 1	 20.72	 11.55	 0.0	 0.0	 1	    1.07528	   -2.34691	 110.0	 1	    1.12000	    0.95000;
	286	 1	 10.31	 0.4	 0.0	 0.0	 1	    1.06606	  -22.05800	 110.0	 1	    1.12000	    0.95000;
	287	 1	 12.6	 4.52	 0.0	 0.0	 1	    1.11292	   -7.25377	 110.0	 1	    1.12000	    0.95000;
	288	 1	 9.6	 0.8	 0.0	 0.0	 1	    1.06756	  -22.16420	 110.0	 1	    1.12000	    0.95000;
	289	 1	 0.0	 0.0	 0.0	 0.0	 1	    1.06750	  -22.17444	 110.0	 1	    1.12000	    0.95000;
	290	 1	 6.28	 0.3	 0.0	 0.0	 1	    1.08909	  -20.81580	 110.0	 1	    1.12000	    0.95000;
	291	 1	 5.23	 0.0	 0.0	 0.0	 1	    1.08337	  -20.81423	 110.0	 1	    1.12000	    0.95000;
	292	 1	 4.19	 0.0	 0.0	 0.0	 1	    1.08331	  -20.81618	 110.0	 1	    1.12000	    0.95000;
	293	 1	 1.05	 0.0	 0.0	 0.0	 1	    1.09318	  -20.89236	 110.0	 1	    1.12000	    0.95000;
	294	 1	 0.0	 0.0	 0.0	 0.0	 1	    1.09323	  -20.91300	 110.0	 1	    1.12000	    0.95000;
	295	 2	 0.23	 0.4	 0.0	 0.0	 1	    1.08430	  -19.92351	 110.0	 1	    1.12000	    0.95000;
	296	 1	 0.0	 0.0	 0.0	 0.0	 1	    1.08424	  -19.92824	 110.0	 1	    1.12000	    0.95000;
	297	 1	 9.42	 2.01	 0.0	 0.0	 1	    1.07787	  -24.70672	 110.0	 1	    1.12000	    0.95000;
	298	 1	 0.3	 0.1	 0.0	 0.0	 1	    1.10371	   -6.20383	 110.0	 1	    1.12000	    0.95000;
	299	 1	 0.3	 0.1	 0.0	 0.0	 1	    1.10064	   -6.34534	 110.0	 1	    1.12000	    0.95000;
	300	 1	 13.51	 7.64	 0.0	 0.0	 1	    1.10150	   -6.28278	 110.0	 1	    1.12000	    0.95000;
	301	 1	 0.51	 0.2	 0.0	 0.0	 1	    1.10061	   -6.34692	 110.0	 1	    1.12000	    0.95000;
	302	 1	 7.78	 0.1	 0.0	 0.0	 1	    1.06011	  -24.44726	 110.0	 1	    1.12000	    0.95000;
	303	 1	 8.99	 0.1	 0.0	 0.0	 1	    1.06016	  -24.45500	 110.0	 1	    1.12000	    0.95000;
	304	 1	 6.71	 2.21	 0.0	 0.0	 1	    1.11131	   -7.82187	 110.0	 1	    1.12000	    0.95000;
	305	 1	 6.7	 0.6	 0.0	 0.0	 1	    1.10257	   -6.53380	 110.0	 1	    1.12000	    0.95000;
	306	 1	 3.66	 0.3	 0.0	 0.0	 1	    1.10255	   -6.50891	 110.0	 1	    1.12000	    0.95000;
	307	 1	 4.16	 1.0	 0.0	 0.0	 1	    1.11746	  -14.58345	 110.0	 1	    1.12000	    0.95000;
	308	 1	 0.0	 0.0	 0.0	 0.0	 1	    1.08772	   -0.69534	 110.0	 1	    1.12000	    0.95000;
	309	 1	 0.0	 0.0	 0.0	 0.0	 1	    1.08777	   -0.71474	 110.0	 1	    1.12000	    0.95000;
	310	 2	 33.84	 48.83	 0.0	 0.0	 1	    1.00164	    2.79871	 24.0	 1	    1.12000	    0.95000;
	311	 1	 6.28	 0.5	 0.0	 0.0	 1	    1.10796	  -24.66317	 110.0	 1	    1.12000	    0.95000;
	312	 1	 6.28	 0.5	 0.0	 0.0	 1	    1.10792	  -24.68334	 110.0	 1	    1.12000	    0.95000;
	313	 1	 4.71	 0.5	 0.0	 0.0	 1	    1.10899	  -24.47048	 110.0	 1	    1.12000	    0.95000;
	314	 1	 2.62	 0.5	 0.0	 0.0	 1	    1.12000	  -23.51621	 110.0	 1	    1.12000	    0.95000;
	315	 1	 0.0	 0.0	 0.0	 45.0	 1	    1.09870	  -23.96746	 16.0	 1	    1.25000	    0.75000;
	316	 2	 0.0	 -0.02	 0.0	 0.0	 1	    1.06318	  -19.98203	 110.0	 1	    1.12000	    0.95000;
	317	 1	 17.79	 2.51	 0.0	 0.0	 1	    1.10559	  -18.71875	 110.0	 1	    1.12000	    0.95000;
	318	 1	 3.66	 0.5	 0.0	 0.0	 1	    1.07121	  -28.64507	 110.0	 1	    1.12000	    0.95000;
	319	 1	 6.37	 0.5	 0.0	 0.0	 1	    1.07695	  -17.41573	 110.0	 1	    1.12000	    0.95000;
	320	 1	 24.36	 6.53	 0.0	 0.0	 1	    1.07400	  -12.63948	 110.0	 1	    1.12000	    0.95000;
	321	 1	 26.39	 6.23	 0.0	 0.0	 1	    1.08454	  -19.69042	 110.0	 1	    1.12000	    0.95000;