%%%%%%%%%%%%%%%%%%%%%%%%%%%%%%%%%%%%%%%%%%%%%%%%%%%%%%%%%%%%%%%%%%%%%%%%%%%
%%%%                                                                  %%%%%
%%%%    IEEE PES Power Grid Library - Optimal Power Flow - v17.07     %%%%%
%%%%          (https://github.com/power-grid-lib/pglib-opf)           %%%%%
%%%%             Benchmark Group - Small Angle Difference             %%%%%
%%%%                         27 - June - 2017                         %%%%%
%%%%                                                                  %%%%%
%%%%%%%%%%%%%%%%%%%%%%%%%%%%%%%%%%%%%%%%%%%%%%%%%%%%%%%%%%%%%%%%%%%%%%%%%%%
function mpc = pglib_opf_case2737sop_mp__sad
mpc.version = '2';
mpc.baseMVA = 100.0;

%% area data
%	area	refbus
mpc.areas = [
	1	 18;
];

%% bus data
%	bus_i	type	Pd	Qd	Gs	Bs	area	Vm	Va	baseKV	zone	Vmax	Vmin
mpc.bus = [
	1	 1	 0.0	 0.0	 0.0	 0.0	 1	    1.10073	    1.91121	 220.0	 1	    1.11000	    0.95000;
	2	 1	 0.0	 0.0	 0.0	 0.0	 1	    1.10909	    0.49558	 220.0	 1	    1.11000	    0.95000;
	3	 1	 0.0	 0.0	 0.0	 0.0	 1	    1.07195	   -9.87180	 220.0	 1	    1.11000	    0.95000;
	4	 1	 0.0	 0.0	 0.0	 0.0	 1	    1.10128	   -0.66819	 220.0	 1	    1.11000	    0.95000;
	5	 1	 0.0	 0.0	 0.0	 0.0	 1	    1.10128	   -0.66274	 220.0	 1	    1.11000	    0.95000;
	6	 1	 0.0	 0.0	 0.0	 0.0	 1	    1.07624	   -5.63759	 220.0	 1	    1.11000	    0.95000;
	7	 1	 0.0	 0.0	 0.0	 0.0	 1	    1.07632	   -5.63361	 220.0	 1	    1.11000	    0.95000;
	8	 1	 0.0	 0.0	 0.0	 -50.0	 1	    1.04105	   -3.75698	 400.0	 1	    1.05000	    0.95000;
	9	 1	 0.0	 0.0	 0.0	 0.0	 1	    1.04108	   -3.75388	 400.0	 1	    1.05000	    0.95000;
	10	 1	 0.0	 0.0	 0.0	 0.0	 1	    1.07072	   -5.43149	 220.0	 1	    1.11000	    0.95000;
	11	 1	 0.0	 0.0	 0.0	 0.0	 1	    1.07069	   -5.43702	 220.0	 1	    1.11000	    0.95000;
	12	 1	 0.0	 0.0	 0.0	 0.0	 1	    1.07070	   -5.43741	 220.0	 1	    1.11000	    0.95000;
	13	 1	 0.0	 0.0	 0.0	 0.0	 1	    1.07067	   -5.44325	 220.0	 1	    1.11000	    0.95000;
	14	 1	 0.0	 0.0	 0.0	 -50.0	 1	    1.03743	   -3.45282	 400.0	 1	    1.05000	    0.95000;
	15	 1	 0.0	 0.0	 0.0	 0.0	 1	    1.04769	   -4.89524	 400.0	 1	    1.05000	    0.95000;
	16	 1	 0.0	 0.0	 0.0	 0.0	 1	    1.04769	   -4.89524	 400.0	 1	    1.05000	    0.95000;
	17	 1	 0.0	 0.0	 0.0	 0.0	 1	    1.06749	   -7.64894	 220.0	 1	    1.11000	    0.95000;
	18	 1	 0.0	 0.0	 0.0	 0.0	 1	    1.06742	   -7.64615	 220.0	 1	    1.11000	    0.95000;
	19	 1	 0.0	 0.0	 0.0	 0.0	 1	    1.10385	   -0.24943	 220.0	 1	    1.11000	    0.95000;
	20	 1	 0.0	 0.0	 0.0	 0.0	 1	    1.10387	   -0.25342	 220.0	 1	    1.11000	    0.95000;
	21	 1	 0.0	 0.0	 0.0	 0.0	 1	    1.08305	   -5.45477	 220.0	 1	    1.11000	    0.95000;
	22	 1	 0.0	 0.0	 0.0	 0.0	 1	    1.08305	   -5.45477	 220.0	 1	    1.11000	    0.95000;
	23	 1	 0.0	 0.0	 0.0	 0.0	 1	    1.06810	   -5.38646	 220.0	 1	    1.11000	    0.95000;
	24	 1	 0.0	 0.0	 0.0	 0.0	 1	    1.10565	   -0.33709	 220.0	 1	    1.11000	    0.95000;
	25	 1	 0.0	 0.0	 0.0	 -50.0	 1	    1.03132	   -6.40747	 400.0	 1	    1.05000	    0.95000;
	26	 2	 48.178	 65.087	 0.0	 0.0	 1	    1.11000	    2.27142	 220.0	 1	    1.11000	    0.95000;
	27	 2	 28.145	 35.087	 0.0	 0.0	 1	    1.11000	    0.53007	 220.0	 1	    1.11000	    0.95000;
	28	 3	 0.0	 0.0	 0.0	 0.0	 1	    1.05000	   -0.00000	 400.0	 1	    1.05000	    0.95000;
	29	 2	 44.698	 72.0	 0.0	 0.0	 1	    1.04996	    0.00584	 400.0	 1	    1.05000	    0.95000;
	30	 1	 0.0	 0.0	 0.0	 0.0	 1	    1.07414	   -5.59607	 220.0	 1	    1.11000	    0.95000;
	31	 1	 0.0	 0.0	 0.0	 0.0	 1	    1.04968	   -1.03539	 400.0	 1	    1.05000	    0.95000;
	32	 1	 0.0	 0.0	 0.0	 0.0	 1	    1.06848	   -5.59179	 220.0	 1	    1.11000	    0.95000;
	33	 1	 0.0	 0.0	 0.0	 0.0	 1	    1.10188	   -1.21332	 220.0	 1	    1.11000	    0.95000;
	34	 1	 0.0	 0.0	 0.0	 0.0	 1	    1.10999	   -2.03896	 220.0	 2	    1.11000	    0.95000;
	35	 1	 0.0	 0.0	 0.0	 0.0	 1	    1.07724	   -3.88140	 220.0	 2	    1.11000	    0.95000;
	36	 1	 0.0	 0.0	 0.0	 0.0	 1	    1.09390	   -3.39431	 220.0	 2	    1.11000	    0.95000;
	37	 1	 0.0	 0.0	 0.0	 0.0	 1	    1.09385	   -3.39661	 220.0	 2	    1.11000	    0.95000;
	38	 1	 0.0	 0.0	 0.0	 0.0	 1	    1.10042	   -2.31271	 220.0	 2	    1.11000	    0.95000;
	39	 1	 0.0	 0.0	 0.0	 0.0	 1	    1.10476	   -3.85387	 220.0	 2	    1.11000	    0.95000;
	40	 1	 0.0	 0.0	 0.0	 0.0	 1	    1.10469	   -3.85951	 220.0	 2	    1.11000	    0.95000;
	41	 1	 0.0	 0.0	 0.0	 0.0	 1	    1.03643	   -3.57127	 400.0	 2	    1.05000	    0.95000;
	42	 2	 13.0	 0.0	 0.0	 0.0	 1	    1.08576	   -1.42921	 220.0	 2	    1.11000	    0.95000;
	43	 2	 13.0	 0.0	 0.0	 0.0	 1	    1.08579	   -1.42167	 220.0	 2	    1.11000	    0.95000;
	44	 2	 25.0	 0.0	 0.0	 0.0	 1	    1.04998	   -1.20529	 400.0	 2	    1.05000	    0.95000;
	45	 1	 0.0	 0.0	 0.0	 0.0	 1	    1.05000	   -1.20630	 400.0	 2	    1.05000	    0.95000;
	46	 1	 0.0	 0.0	 0.0	 0.0	 1	    1.10431	   -4.12368	 220.0	 2	    1.11000	    0.95000;
	47	 1	 0.0	 0.0	 0.0	 0.0	 1	    1.03573	   -6.11622	 400.0	 2	    1.05000	    0.95000;
	48	 1	 0.0	 0.0	 0.0	 0.0	 1	    1.03573	   -6.12047	 400.0	 2	    1.05000	    0.95000;
	49	 1	 0.0	 0.0	 0.0	 0.0	 1	    1.04706	   -1.26507	 400.0	 2	    1.05000	    0.95000;
	50	 1	 0.0	 0.0	 0.0	 0.0	 1	    1.10038	   -1.80665	 220.0	 2	    1.11000	    0.95000;
	51	 1	 0.0	 0.0	 0.0	 0.0	 1	    1.10036	   -1.80405	 220.0	 2	    1.11000	    0.95000;
	52	 1	 0.0	 0.0	 0.0	 0.0	 1	    1.04635	   -2.94381	 400.0	 2	    1.05000	    0.95000;
	53	 1	 0.0	 0.0	 0.0	 0.0	 1	    1.04634	   -2.94668	 400.0	 2	    1.05000	    0.95000;
	54	 1	 0.0	 0.0	 0.0	 0.0	 1	    1.09414	   -3.27885	 220.0	 2	    1.11000	    0.95000;
	55	 2	 13.0	 0.0	 0.0	 0.0	 1	    1.09411	   -3.27146	 220.0	 2	    1.11000	    0.95000;
	56	 2	 13.0	 0.0	 0.0	 0.0	 1	    1.04342	   -3.23590	 400.0	 2	    1.05000	    0.95000;
	57	 2	 13.0	 0.0	 0.0	 0.0	 1	    1.04341	   -3.23742	 400.0	 2	    1.05000	    0.95000;
	58	 2	 67.882	 25.273	 0.0	 0.0	 1	    1.09122	   -1.91733	 220.0	 2	    1.11000	    0.95000;
	59	 1	 0.0	 0.0	 0.0	 0.0	 1	    1.09128	   -1.91519	 220.0	 2	    1.11000	    0.95000;
	60	 1	 0.0	 0.0	 0.0	 0.0	 1	    1.10068	   -4.19999	 220.0	 2	    1.11000	    0.95000;
	61	 1	 0.0	 0.0	 0.0	 0.0	 1	    1.09054	   -2.49336	 220.0	 2	    1.11000	    0.95000;
	62	 1	 0.0	 0.0	 0.0	 0.0	 1	    1.09050	   -2.49035	 220.0	 2	    1.11000	    0.95000;
	63	 1	 0.0	 0.0	 0.0	 0.0	 1	    1.03469	   -4.26575	 400.0	 2	    1.05000	    0.95000;
	64	 1	 0.0	 0.0	 0.0	 0.0	 1	    1.03471	   -4.27377	 400.0	 2	    1.05000	    0.95000;
	65	 1	 0.0	 224.802	 0.0	 0.0	 1	    1.04666	   -4.24849	 750.0	 2	    1.05000	    0.90000;
	66	 1	 0.0	 0.0	 0.0	 0.0	 1	    1.09890	   -3.25781	 220.0	 2	    1.11000	    0.95000;
	67	 1	 0.0	 0.0	 0.0	 0.0	 1	    1.09954	   -3.16829	 220.0	 2	    1.11000	    0.95000;
	68	 1	 0.0	 0.0	 0.0	 0.0	 1	    1.09695	   -1.32043	 220.0	 2	    1.11000	    0.95000;
	69	 1	 0.0	 0.0	 0.0	 0.0	 1	    1.09819	   -2.85864	 220.0	 3	    1.11000	    0.95000;
	70	 1	 0.0	 0.0	 0.0	 0.0	 1	    1.09430	   -4.74610	 220.0	 3	    1.11000	    0.95000;
	71	 1	 0.0	 0.0	 0.0	 0.0	 1	    1.09430	   -4.74346	 220.0	 3	    1.11000	    0.95000;
	72	 1	 0.0	 0.0	 0.0	 0.0	 1	    1.07243	   -5.58485	 220.0	 3	    1.11000	    0.95000;
	73	 1	 0.0	 0.0	 0.0	 0.0	 1	    1.07243	   -5.57230	 220.0	 3	    1.11000	    0.95000;
	74	 1	 0.0	 0.0	 0.0	 0.0	 1	    1.08578	   -5.02999	 220.0	 3	    1.11000	    0.95000;
	75	 1	 0.0	 0.0	 0.0	 0.0	 1	    1.08575	   -5.03031	 220.0	 3	    1.11000	    0.95000;
	76	 1	 0.0	 0.0	 0.0	 0.0	 1	    1.06770	   -9.38250	 220.0	 3	    1.11000	    0.95000;
	77	 1	 0.0	 0.0	 0.0	 0.0	 1	    1.06768	   -9.38603	 220.0	 3	    1.11000	    0.95000;
	78	 2	 27.0	 70.0	 0.0	 0.0	 1	    1.07342	   -4.71796	 220.0	 3	    1.11000	    0.95000;
	79	 2	 9.0	 21.0	 0.0	 0.0	 1	    1.07721	   -5.33068	 220.0	 3	    1.11000	    0.95000;
	80	 1	 4.602	 0.91	 0.0	 0.0	 1	    1.07514	   -5.65822	 220.0	 3	    1.11000	    0.95000;
	81	 1	 0.0	 0.0	 0.0	 0.0	 1	    1.07513	   -5.65715	 220.0	 3	    1.11000	    0.95000;
	82	 2	 18.0	 57.0	 0.0	 0.0	 1	    1.03759	   -3.04906	 400.0	 3	    1.05000	    0.95000;
	83	 1	 0.0	 0.0	 0.0	 0.0	 1	    1.10416	   -4.18363	 220.0	 3	    1.11000	    0.95000;
	84	 1	 0.0	 0.0	 0.0	 0.0	 1	    1.08094	   -5.53631	 220.0	 3	    1.11000	    0.95000;
	85	 1	 0.0	 0.0	 0.0	 0.0	 1	    1.08090	   -5.53567	 220.0	 3	    1.11000	    0.95000;
	86	 1	 32.969	 -8.4	 0.0	 0.0	 1	    1.09835	   -3.00211	 220.0	 3	    1.11000	    0.95000;
	87	 1	 0.0	 0.0	 0.0	 0.0	 1	    1.09834	   -3.00678	 220.0	 3	    1.11000	    0.95000;
	88	 1	 0.0	 0.0	 0.0	 0.0	 1	    1.07639	   -4.95389	 220.0	 3	    1.11000	    0.95000;
	89	 1	 0.0	 0.0	 0.0	 0.0	 1	    1.07634	   -4.95309	 220.0	 3	    1.11000	    0.95000;
	90	 1	 0.0	 0.0	 0.0	 0.0	 1	    1.09857	   -2.62392	 220.0	 3	    1.11000	    0.95000;
	91	 1	 0.0	 0.0	 0.0	 0.0	 1	    1.09859	   -2.62693	 220.0	 3	    1.11000	    0.95000;
	92	 1	 0.0	 0.0	 0.0	 0.0	 1	    1.05000	   -1.60716	 400.0	 3	    1.05000	    0.95000;
	93	 1	 0.0	 0.0	 0.0	 0.0	 1	    1.04999	   -1.60872	 400.0	 3	    1.05000	    0.95000;
	94	 1	 0.0	 0.0	 0.0	 0.0	 1	    1.08038	   -5.14751	 220.0	 3	    1.11000	    0.95000;
	95	 1	 0.0	 0.0	 0.0	 0.0	 1	    1.08039	   -5.15328	 220.0	 3	    1.11000	    0.95000;
	96	 1	 0.0	 0.0	 0.0	 0.0	 1	    1.09367	   -4.68859	 220.0	 3	    1.11000	    0.95000;
	97	 1	 0.0	 0.0	 0.0	 0.0	 1	    1.09373	   -4.68601	 220.0	 3	    1.11000	    0.95000;
	98	 2	 9.938	 2.19	 0.0	 0.0	 1	    1.08231	   -4.93800	 220.0	 3	    1.11000	    0.95000;
	99	 1	 16.652	 3.293	 0.0	 0.0	 1	    1.08235	   -4.93513	 220.0	 3	    1.11000	    0.95000;
	100	 1	 0.0	 0.0	 0.0	 0.0	 1	    1.09428	   -4.74330	 220.0	 3	    1.11000	    0.95000;
	101	 1	 0.0	 0.0	 0.0	 0.0	 1	    1.09428	   -4.74594	 220.0	 3	    1.11000	    0.95000;
	102	 1	 0.0	 0.0	 0.0	 0.0	 1	    1.06857	   -8.80585	 220.0	 3	    1.11000	    0.95000;
	103	 1	 0.0	 0.0	 0.0	 0.0	 1	    1.06857	   -8.79517	 220.0	 3	    1.11000	    0.95000;
	104	 2	 14.0	 40.0	 0.0	 0.0	 1	    1.08152	   -5.62302	 220.0	 3	    1.11000	    0.95000;
	105	 1	 0.0	 0.0	 0.0	 0.0	 1	    1.08142	   -5.64125	 220.0	 3	    1.11000	    0.95000;
	106	 2	 7.0	 18.0	 0.0	 0.0	 1	    1.08101	   -4.71303	 220.0	 3	    1.11000	    0.95000;
	107	 1	 0.0	 0.0	 0.0	 0.0	 1	    1.08098	   -4.71137	 220.0	 3	    1.11000	    0.95000;
	108	 1	 27.63	 5.872	 0.0	 0.0	 1	    1.08784	   -4.42630	 220.0	 3	    1.11000	    0.95000;
	109	 1	 17.522	 3.337	 0.0	 0.0	 1	    1.08784	   -4.43098	 220.0	 3	    1.11000	    0.95000;
	110	 1	 0.0	 0.0	 0.0	 0.0	 1	    1.07430	   -5.65395	 220.0	 3	    1.11000	    0.95000;
	111	 1	 0.0	 0.0	 0.0	 0.0	 1	    1.07728	   -5.78421	 220.0	 3	    1.11000	    0.95000;
	112	 1	 0.0	 0.0	 0.0	 0.0	 1	    1.07728	   -5.78368	 220.0	 3	    1.11000	    0.95000;
	113	 1	 0.0	 0.0	 0.0	 0.0	 1	    1.07386	   -5.57662	 220.0	 3	    1.11000	    0.95000;
	114	 1	 0.0	 0.0	 0.0	 0.0	 1	    1.07386	   -5.57037	 220.0	 3	    1.11000	    0.95000;
	115	 1	 0.0	 0.0	 0.0	 0.0	 1	    1.03413	   -3.82198	 400.0	 3	    1.05000	    0.95000;
	116	 1	 0.0	 0.0	 0.0	 0.0	 1	    1.07774	   -4.94074	 220.0	 3	    1.11000	    0.95000;
	117	 2	 8.0	 15.0	 0.0	 0.0	 1	    1.07770	   -4.93145	 220.0	 3	    1.11000	    0.95000;
	118	 1	 0.0	 0.0	 0.0	 0.0	 1	    1.07693	   -5.41271	 220.0	 3	    1.11000	    0.95000;
	119	 1	 0.0	 0.0	 0.0	 0.0	 1	    1.07695	   -5.41044	 220.0	 3	    1.11000	    0.95000;
	120	 1	 0.0	 0.0	 0.0	 0.0	 1	    1.04442	   -3.93729	 400.0	 3	    1.05000	    0.95000;
	121	 1	 0.0	 0.0	 0.0	 0.0	 1	    1.04446	   -3.93424	 400.0	 3	    1.05000	    0.95000;
	122	 1	 0.0	 0.0	 0.0	 0.0	 1	    1.04175	   -3.31885	 400.0	 3	    1.05000	    0.95000;
	123	 1	 0.0	 0.0	 0.0	 0.0	 1	    1.04181	   -3.31405	 400.0	 3	    1.05000	    0.95000;
	124	 1	 0.0	 0.0	 0.0	 0.0	 1	    1.07371	   -5.71457	 220.0	 3	    1.11000	    0.95000;
	125	 1	 2.929	 0.867	 0.0	 0.0	 1	    1.08898	   -4.96733	 220.0	 3	    1.11000	    0.95000;
	126	 2	 19.898	 27.707	 0.0	 0.0	 1	    1.08877	   -4.96439	 220.0	 3	    1.11000	    0.95000;
	127	 2	 12.2	 25.8	 0.0	 0.0	 1	    1.02861	   -3.85046	 400.0	 3	    1.05000	    0.95000;
	128	 1	 0.0	 0.0	 0.0	 0.0	 1	    1.02854	   -3.85214	 400.0	 3	    1.05000	    0.95000;
	129	 1	 0.0	 0.0	 0.0	 0.0	 1	    1.09807	   -3.09958	 220.0	 3	    1.11000	    0.95000;
	130	 1	 0.0	 0.0	 0.0	 0.0	 1	    1.09801	   -3.10047	 220.0	 3	    1.11000	    0.95000;
	131	 1	 0.0	 0.0	 0.0	 0.0	 1	    1.09725	   -2.97856	 220.0	 3	    1.11000	    0.95000;
	132	 2	 137.0	 9.0	 0.0	 0.0	 1	    1.06678	   -9.81400	 220.0	 3	    1.11000	    0.95000;
	133	 2	 137.0	 6.0	 0.0	 0.0	 1	    1.06678	   -9.81903	 220.0	 3	    1.11000	    0.95000;
	134	 1	 0.515	 1.973	 0.0	 0.0	 1	    1.10285	   -1.26546	 220.0	 4	    1.11000	    0.95000;
	135	 2	 15.242	 14.277	 0.0	 0.0	 1	    1.10292	   -1.26269	 220.0	 4	    1.11000	    0.95000;
	136	 1	 0.0	 0.0	 0.0	 0.0	 1	    1.11000	   -3.63518	 220.0	 4	    1.11000	    0.95000;
	137	 1	 0.0	 0.0	 0.0	 0.0	 1	    1.10949	   -2.90231	 220.0	 4	    1.11000	    0.95000;
	138	 1	 0.0	 0.0	 0.0	 0.0	 1	    1.03396	   -3.19536	 400.0	 4	    1.05000	    0.95000;
	139	 1	 0.0	 0.0	 0.0	 0.0	 1	    1.03399	   -3.19924	 400.0	 4	    1.05000	    0.95000;
	140	 1	 0.0	 0.0	 0.0	 0.0	 1	    1.10236	   -5.74772	 220.0	 4	    1.11000	    0.95000;
	141	 1	 0.0	 0.0	 0.0	 0.0	 1	    1.08616	   -4.09177	 220.0	 4	    1.11000	    0.95000;
	142	 1	 0.0	 0.0	 0.0	 0.0	 1	    1.08616	   -4.09177	 220.0	 4	    1.11000	    0.95000;
	143	 1	 0.0	 0.0	 0.0	 0.0	 1	    1.09917	   -4.75594	 220.0	 4	    1.11000	    0.95000;
	144	 1	 0.0	 0.0	 0.0	 0.0	 1	    1.10938	   -4.31741	 220.0	 4	    1.11000	    0.95000;
	145	 1	 0.0	 0.0	 0.0	 0.0	 1	    1.10938	   -4.31741	 220.0	 4	    1.11000	    0.95000;
	146	 1	 7.636	 13.257	 0.0	 0.0	 1	    1.09518	   -2.39441	 220.0	 4	    1.11000	    0.95000;
	147	 1	 0.0	 0.0	 0.0	 0.0	 1	    1.09526	   -2.39334	 220.0	 4	    1.11000	    0.95000;
	148	 2	 10.87	 14.867	 0.0	 0.0	 1	    1.09091	   -3.22185	 220.0	 4	    1.11000	    0.95000;
	149	 1	 0.0	 0.0	 0.0	 0.0	 1	    1.09106	   -3.23128	 220.0	 4	    1.11000	    0.95000;
	150	 2	 10.989	 15.0	 0.0	 0.0	 1	    1.04594	   -5.47912	 400.0	 4	    1.05000	    0.95000;
	151	 2	 20.672	 21.479	 0.0	 0.0	 1	    1.04595	   -5.47828	 400.0	 4	    1.05000	    0.95000;
	152	 1	 0.0	 0.0	 0.0	 0.0	 1	    1.10024	   -6.01141	 220.0	 4	    1.11000	    0.95000;
	153	 1	 0.0	 0.0	 0.0	 0.0	 1	    1.10754	   -3.92692	 220.0	 4	    1.11000	    0.95000;
	154	 1	 0.0	 0.0	 0.0	 0.0	 1	    1.10754	   -3.92880	 220.0	 4	    1.11000	    0.95000;
	155	 2	 0.0	 0.0	 0.0	 0.0	 1	    1.10676	   -1.35851	 220.0	 4	    1.11000	    0.95000;
	156	 2	 13.87	 33.0	 0.0	 0.0	 1	    1.10679	   -1.35146	 220.0	 4	    1.11000	    0.95000;
	157	 1	 0.0	 0.0	 0.0	 0.0	 1	    1.02016	   -0.62716	 400.0	 4	    1.05000	    0.95000;
	158	 2	 9.989	 25.0	 0.0	 0.0	 1	    1.02013	   -0.62213	 400.0	 4	    1.05000	    0.95000;
	159	 1	 0.0	 0.0	 0.0	 0.0	 1	    1.09095	   -4.11776	 220.0	 4	    1.11000	    0.95000;
	160	 1	 0.0	 0.0	 0.0	 0.0	 1	    1.09095	   -4.11776	 220.0	 4	    1.11000	    0.95000;
	161	 1	 0.0	 0.0	 0.0	 0.0	 1	    1.03872	   -4.17584	 400.0	 4	    1.05000	    0.95000;
	162	 1	 0.0	 0.0	 0.0	 0.0	 1	    1.03869	   -3.77749	 400.0	 4	    1.05000	    0.95000;
	163	 1	 0.0	 0.0	 0.0	 0.0	 1	    1.03869	   -3.77549	 400.0	 4	    1.05000	    0.95000;
	164	 2	 11.664	 11.0	 0.0	 0.0	 1	    1.09612	   -2.46899	 220.0	 4	    1.11000	    0.95000;
	165	 2	 11.564	 10.667	 0.0	 0.0	 1	    1.09614	   -2.48306	 220.0	 4	    1.11000	    0.95000;
	166	 1	 0.0	 0.0	 0.0	 0.0	 1	    1.09614	   -2.48306	 220.0	 4	    1.11000	    0.95000;
	167	 1	 0.0	 0.0	 0.0	 0.0	 1	    1.10341	   -9.65548	 220.0	 4	    1.11000	    0.95000;
	168	 1	 0.0	 0.0	 0.0	 0.0	 1	    1.08550	   -4.15457	 220.0	 4	    1.11000	    0.95000;
	169	 1	 0.0	 0.0	 0.0	 0.0	 1	    1.11000	   -6.45739	 220.0	 4	    1.11000	    0.95000;
	170	 1	 0.0	 0.0	 0.0	 0.0	 1	    1.10999	   -6.46447	 220.0	 4	    1.11000	    0.95000;
	171	 1	 0.0	 0.0	 0.0	 0.0	 1	    1.03154	   -6.38388	 400.0	 4	    1.05000	    0.95000;
	172	 1	 0.0	 0.0	 0.0	 0.0	 1	    1.03154	   -6.38388	 400.0	 4	    1.05000	    0.95000;
	173	 1	 0.0	 0.0	 0.0	 0.0	 1	    1.09882	   -4.76776	 220.0	 4	    1.11000	    0.95000;
	174	 1	 0.0	 0.0	 0.0	 0.0	 1	    1.09883	   -4.76605	 220.0	 4	    1.11000	    0.95000;
	175	 1	 0.0	 0.0	 0.0	 0.0	 1	    1.09235	   -4.53888	 220.0	 4	    1.11000	    0.95000;
	176	 1	 0.0	 0.0	 0.0	 0.0	 1	    1.10962	   -3.62147	 220.0	 4	    1.11000	    0.95000;
	177	 1	 0.0	 0.0	 0.0	 0.0	 1	    1.10962	   -3.62107	 220.0	 4	    1.11000	    0.95000;
	178	 1	 0.0	 0.0	 0.0	 0.0	 1	    1.10937	   -4.10523	 220.0	 4	    1.11000	    0.95000;
	179	 1	 0.0	 0.0	 0.0	 0.0	 1	    1.10937	   -4.10523	 220.0	 4	    1.11000	    0.95000;
	180	 2	 3.13	 1.5	 0.0	 0.0	 1	    1.10979	   -3.01857	 220.0	 4	    1.11000	    0.95000;
	181	 1	 0.0	 0.0	 0.0	 0.0	 1	    1.09882	   -5.02883	 220.0	 4	    1.11000	    0.95000;
	182	 1	 0.0	 0.0	 0.0	 0.0	 1	    1.06912	   -8.85528	 220.0	 5	    1.11000	    0.95000;
	183	 1	 0.0	 0.0	 0.0	 0.0	 1	    1.08770	  -12.43117	 220.0	 5	    1.11000	    0.95000;
	184	 1	 0.0	 0.0	 0.0	 0.0	 1	    1.02326	  -11.89616	 400.0	 5	    1.05000	    0.95000;
	185	 1	 0.0	 0.0	 0.0	 0.0	 1	    1.02331	  -11.88659	 400.0	 5	    1.05000	    0.95000;
	186	 1	 0.0	 0.0	 0.0	 0.0	 1	    1.00771	  -15.30916	 400.0	 5	    1.05000	    0.95000;
	187	 1	 0.0	 0.0	 0.0	 0.0	 1	    1.00772	  -15.31325	 400.0	 5	    1.05000	    0.95000;
	188	 1	 0.0	 0.0	 0.0	 0.0	 1	    1.07448	  -14.05733	 220.0	 5	    1.11000	    0.95000;
	189	 1	 0.0	 0.0	 0.0	 0.0	 1	    1.07452	  -14.05832	 220.0	 5	    1.11000	    0.95000;
	190	 1	 0.0	 0.0	 0.0	 0.0	 1	    1.07528	   -9.56187	 220.0	 5	    1.11000	    0.95000;
	191	 1	 0.0	 0.0	 0.0	 0.0	 1	    1.07525	   -9.56551	 220.0	 5	    1.11000	    0.95000;
	192	 1	 0.0	 0.0	 0.0	 0.0	 1	    1.00557	  -11.51257	 400.0	 5	    1.05000	    0.95000;
	193	 1	 0.0	 0.0	 0.0	 0.0	 1	    1.07117	   -8.40390	 220.0	 5	    1.11000	    0.95000;
	194	 1	 0.0	 0.0	 0.0	 0.0	 1	    1.07118	   -8.39964	 220.0	 5	    1.11000	    0.95000;
	195	 1	 0.0	 0.0	 0.0	 0.0	 1	    1.01626	  -14.99461	 400.0	 5	    1.05000	    0.95000;
	196	 1	 0.0	 0.0	 0.0	 0.0	 1	    1.01626	  -14.99370	 400.0	 5	    1.05000	    0.95000;
	197	 1	 0.0	 0.0	 0.0	 0.0	 1	    1.05243	  -11.55873	 220.0	 5	    1.11000	    0.95000;
	198	 1	 0.0	 0.0	 0.0	 0.0	 1	    1.05243	  -11.55729	 220.0	 5	    1.11000	    0.95000;
	199	 1	 0.0	 0.0	 0.0	 -117.0	 1	    1.00645	  -14.00443	 400.0	 5	    1.05000	    0.95000;
	200	 1	 0.0	 0.0	 0.0	 0.0	 1	    1.00653	  -13.99585	 400.0	 5	    1.05000	    0.95000;
	201	 1	 0.0	 0.0	 0.0	 0.0	 1	    1.06580	   -9.15271	 220.0	 5	    1.11000	    0.95000;
	202	 1	 0.0	 0.0	 0.0	 0.0	 1	    1.06578	   -9.14851	 220.0	 5	    1.11000	    0.95000;
	203	 1	 0.0	 0.0	 0.0	 0.0	 1	    1.06284	   -7.58655	 220.0	 5	    1.11000	    0.95000;
	204	 1	 0.0	 0.0	 0.0	 0.0	 1	    1.06280	   -7.59484	 220.0	 5	    1.11000	    0.95000;
	205	 2	 400.0	 60.0	 0.0	 0.0	 1	    1.00133	  -16.22931	 400.0	 5	    1.05000	    0.95000;
	206	 1	 0.0	 0.0	 0.0	 0.0	 1	    1.00137	  -16.22571	 400.0	 5	    1.05000	    0.95000;
	207	 1	 0.0	 0.0	 0.0	 0.0	 1	    1.08919	  -13.09422	 220.0	 5	    1.11000	    0.95000;
	208	 1	 0.0	 0.0	 0.0	 0.0	 1	    1.08917	  -13.09725	 220.0	 5	    1.11000	    0.95000;
	209	 1	 8.114	 2.0	 0.0	 0.0	 1	    1.06005	   -7.09349	 110.0	 1	    1.12000	    0.95000;
	210	 1	 2.705	 0.5	 0.0	 0.0	 1	    1.04895	  -12.32422	 110.0	 1	    1.12000	    0.95000;
	211	 1	 2.705	 2.0	 0.0	 0.0	 1	    1.06650	   -7.19083	 110.0	 1	    1.12000	    0.95000;
	212	 1	 4.688	 4.6	 0.0	 0.0	 1	    1.04201	   -8.45272	 110.0	 1	    1.12000	    0.95000;
	213	 1	 1.623	 0.4	 0.0	 0.0	 1	    1.06098	   -0.15400	 110.0	 1	    1.12000	    0.95000;
	214	 1	 1.172	 0.3	 0.0	 0.0	 1	    1.06125	   -0.65253	 110.0	 1	    1.12000	    0.95000;
	215	 2	 6.0	 8.8	 0.0	 0.0	 1	    1.07517	   -6.88549	 110.0	 1	    1.12000	    0.95000;
	216	 1	 4.959	 0.5	 0.0	 0.0	 1	    1.07712	   -6.83381	 110.0	 1	    1.12000	    0.95000;
	217	 1	 4.057	 1.0	 0.0	 0.0	 1	    1.07653	   -6.85751	 110.0	 1	    1.12000	    0.95000;
	218	 1	 6.762	 1.5	 0.0	 0.0	 1	    1.07487	   -6.98009	 110.0	 1	    1.12000	    0.95000;
	219	 1	 5.139	 2.8	 0.0	 0.0	 1	    1.05627	   -8.10324	 110.0	 1	    1.12000	    0.95000;
	220	 1	 5.41	 1.5	 0.0	 0.0	 1	    1.05543	   -8.03006	 110.0	 1	    1.12000	    0.95000;
	221	 2	 0.0	 0.0	 0.0	 0.0	 1	    1.11197	   -5.88003	 110.0	 1	    1.12000	    0.95000;
	222	 2	 4.237	 1.7	 0.0	 0.0	 1	    1.10109	   -3.75480	 110.0	 1	    1.12000	    0.95000;
	223	 1	 6.311	 1.4	 0.0	 0.0	 1	    1.06380	   -7.69698	 110.0	 1	    1.12000	    0.95000;
	224	 1	 0.721	 0.1	 0.0	 0.0	 1	    1.05432	   -0.99630	 110.0	 1	    1.12000	    0.95000;
	225	 1	 2.074	 0.4	 0.0	 0.0	 1	    1.05744	   -9.68336	 110.0	 1	    1.12000	    0.95000;
	226	 1	 1.803	 0.0	 0.0	 0.0	 1	    1.05663	   -9.92080	 110.0	 1	    1.12000	    0.95000;
	227	 1	 7.664	 1.5	 0.0	 0.0	 1	    1.07159	   -7.12000	 110.0	 1	    1.12000	    0.95000;
	228	 1	 2.524	 1.0	 0.0	 0.0	 1	    1.06308	   -7.87511	 110.0	 1	    1.12000	    0.95000;
	229	 1	 3.246	 1.0	 0.0	 0.0	 1	    1.06310	   -7.87036	 110.0	 1	    1.12000	    0.95000;
	230	 1	 1.533	 0.78	 0.0	 0.0	 1	    1.11002	   -1.96151	 110.0	 1	    1.12000	    0.95000;
	231	 1	 1.533	 0.78	 0.0	 0.0	 1	    1.10349	   -2.43543	 110.0	 1	    1.12000	    0.95000;
	232	 1	 3.606	 1.0	 0.0	 0.0	 1	    1.05936	   -7.73284	 110.0	 1	    1.12000	    0.95000;
	233	 1	 3.246	 1.0	 0.0	 0.0	 1	    1.06130	   -0.62774	 110.0	 1	    1.12000	    0.95000;
	234	 1	 8.114	 0.5	 0.0	 0.0	 1	    1.06808	   -4.52308	 110.0	 1	    1.12000	    0.95000;
	235	 1	 22.54	 23.0	 0.0	 0.0	 1	    1.04496	   -0.67727	 110.0	 1	    1.12000	    0.95000;
	236	 1	 2.975	 0.5	 0.0	 0.0	 1	    1.04822	  -10.10305	 110.0	 1	    1.12000	    0.95000;
	237	 1	 4.057	 1.78	 0.0	 0.0	 1	    1.10881	   -1.99753	 110.0	 1	    1.12000	    0.95000;
	238	 1	 2.975	 0.6	 0.0	 0.0	 1	    1.04794	  -10.08125	 110.0	 1	    1.12000	    0.95000;
	239	 1	 2.254	 1.0	 0.0	 0.0	 1	    1.05752	   -7.45553	 110.0	 1	    1.12000	    0.95000;
	240	 2	 0.0	 0.0	 0.0	 0.0	 1	    1.05262	   -8.16616	 110.0	 1	    1.12000	    0.95000;
	241	 1	 4.959	 0.8	 0.0	 0.0	 1	    1.04799	  -12.12092	 110.0	 1	    1.12000	    0.95000;
	242	 1	 2.074	 0.83	 0.0	 0.0	 1	    1.10615	   -2.26443	 110.0	 1	    1.12000	    0.95000;
	243	 1	 3.336	 0.4	 0.0	 0.0	 1	    1.11083	   -2.89140	 110.0	 1	    1.12000	    0.95000;
	244	 1	 3.336	 0.4	 0.0	 0.0	 1	    1.11086	   -2.88016	 110.0	 1	    1.12000	    0.95000;
	245	 1	 1.623	 1.5	 0.0	 0.0	 1	    1.06276	   -4.30894	 110.0	 1	    1.12000	    0.95000;
	246	 1	 0.0	 0.0	 0.0	 0.0	 1	    1.06606	    0.56485	 110.0	 1	    1.12000	    0.95000;
	247	 2	 0.0	 5.0	 0.0	 0.0	 1	    1.05528	    3.33705	 22.0	 1	    1.12000	    0.95000;
	248	 1	 3.606	 1.0	 0.0	 0.0	 1	    1.05494	  -10.77390	 110.0	 1	    1.12000	    0.95000;
	249	 1	 1.352	 0.0	 0.0	 0.0	 1	    1.05367	  -11.34211	 110.0	 1	    1.12000	    0.95000;
	250	 1	 1.352	 0.0	 0.0	 0.0	 1	    1.05827	  -10.22370	 110.0	 1	    1.12000	    0.95000;
	251	 1	 1.352	 0.0	 0.0	 0.0	 1	    1.04550	  -13.07929	 110.0	 1	    1.12000	    0.95000;
	252	 1	 1.984	 0.3	 0.0	 0.0	 1	    1.06220	   -8.07607	 110.0	 1	    1.12000	    0.95000;
	253	 1	 9.016	 5.0	 0.0	 0.0	 1	    1.06104	   -4.19536	 110.0	 1	    1.12000	    0.95000;
	254	 1	 8.565	 4.0	 0.0	 0.0	 1	    1.05941	   -7.80534	 110.0	 1	    1.12000	    0.95000;
	255	 1	 5.41	 1.0	 0.0	 0.0	 1	    1.04435	  -13.30350	 110.0	 1	    1.12000	    0.95000;
	256	 1	 7.213	 1.0	 0.0	 0.0	 1	    1.06023	   -9.79611	 110.0	 1	    1.12000	    0.95000;
	257	 1	 2.254	 0.0	 0.0	 0.0	 1	    1.06003	   -9.91321	 110.0	 1	    1.12000	    0.95000;
	258	 1	 2.029	 0.5	 0.0	 0.0	 1	    1.06137	   -0.03345	 110.0	 1	    1.12000	    0.95000;
	259	 1	 2.029	 0.5	 0.0	 0.0	 1	    1.06136	   -0.03676	 110.0	 1	    1.12000	    0.95000;
	260	 1	 4.418	 1.78	 0.0	 0.0	 1	    1.10540	   -2.37924	 110.0	 1	    1.12000	    0.95000;
	261	 1	 2.254	 0.0	 0.0	 0.0	 1	    1.04590	  -13.29797	 110.0	 1	    1.12000	    0.95000;
	262	 1	 4.869	 2.1	 0.0	 0.0	 1	    1.06594	   -7.49992	 110.0	 1	    1.12000	    0.95000;
	263	 1	 0.0	 0.0	 0.0	 0.0	 1	    1.06538	   -6.69205	 110.0	 1	    1.12000	    0.95000;
	264	 1	 0.721	 0.8	 0.0	 0.0	 1	    1.04692	  -10.77415	 110.0	 1	    1.12000	    0.95000;
	265	 1	 19.835	 20.0	 0.0	 0.0	 1	    1.06315	    0.30271	 110.0	 1	    1.12000	    0.95000;
	266	 1	 31.555	 33.0	 0.0	 0.0	 1	    1.05184	   -0.81203	 110.0	 1	    1.12000	    0.95000;
	267	 1	 24.344	 0.9	 0.0	 0.0	 1	    1.06841	    0.46897	 110.0	 1	    1.12000	    0.95000;
	268	 1	 0.902	 0.0	 0.0	 0.0	 1	    1.06006	   -7.56207	 110.0	 1	    1.12000	    0.95000;
	269	 1	 3.967	 0.1	 0.0	 0.0	 1	    1.07060	   -7.40225	 110.0	 1	    1.12000	    0.95000;
	270	 1	 3.336	 1.4	 0.0	 0.0	 1	    1.06113	   -8.06900	 110.0	 1	    1.12000	    0.95000;
	271	 1	 4.508	 1.0	 0.0	 0.0	 1	    1.07105	   -7.27727	 110.0	 1	    1.12000	    0.95000;
	272	 1	 4.058	 0.5	 0.0	 0.0	 1	    1.04487	  -12.85955	 110.0	 1	    1.12000	    0.95000;
	273	 1	 5.229	 1.45	 0.0	 0.0	 1	    1.05880	   -7.57270	 110.0	 1	    1.12000	    0.95000;
	274	 1	 0.36	 0.1	 0.0	 0.0	 1	    1.05627	   -8.10257	 110.0	 1	    1.12000	    0.95000;
	275	 1	 0.09	 0.03	 0.0	 0.0	 1	    1.06435	   -7.52228	 110.0	 1	    1.12000	    0.95000;
	276	 1	 0.0	 0.0	 0.0	 0.0	 1	    1.06327	   -7.66298	 110.0	 1	    1.12000	    0.95000;
	277	 1	 6.311	 3.59	 0.0	 0.0	 1	    1.11706	   -1.67899	 110.0	 1	    1.12000	    0.95000;
	278	 1	 0.0	 0.0	 0.0	 0.0	 1	    1.10823	   -2.00153	 110.0	 1	    1.12000	    0.95000;
	279	 1	 3.606	 1.4	 0.0	 0.0	 1	    1.10232	   -3.63978	 110.0	 1	    1.12000	    0.95000;
	280	 1	 1.352	 0.5	 0.0	 0.0	 1	    1.07029	   -7.09873	 110.0	 1	    1.12000	    0.95000;
	281	 1	 2.705	 0.0	 0.0	 0.0	 1	    1.06140	   -7.10327	 110.0	 1	    1.12000	    0.95000;
	282	 1	 2.705	 1.0	 0.0	 0.0	 1	    1.06505	   -7.52941	 110.0	 1	    1.12000	    0.95000;
	283	 1	 3.606	 1.0	 0.0	 0.0	 1	    1.06369	   -7.07213	 110.0	 1	    1.12000	    0.95000;
	284	 1	 16.229	 16.0	 0.0	 0.0	 1	    1.04086	   -1.09368	 110.0	 1	    1.12000	    0.95000;
	285	 1	 40.572	 42.0	 0.0	 0.0	 1	    1.04060	   -1.09788	 110.0	 1	    1.12000	    0.95000;
	286	 1	 0.992	 0.3	 0.0	 0.0	 1	    1.07214	    0.36161	 110.0	 1	    1.12000	    0.95000;
	287	 1	 0.0	 0.0	 0.0	 0.0	 1	    1.06415	    0.27276	 110.0	 1	    1.12000	    0.95000;
	288	 1	 4.779	 2.1	 0.0	 0.0	 1	    1.11595	   -1.63851	 110.0	 1	    1.12000	    0.95000;
	289	 1	 4.959	 1.2	 0.0	 0.0	 1	    1.11403	   -2.05430	 110.0	 1	    1.12000	    0.95000;
	290	 1	 4.508	 1.5	 0.0	 0.0	 1	    1.05468	   -9.53542	 110.0	 1	    1.12000	    0.95000;
	291	 1	 2.705	 1.0	 0.0	 0.0	 1	    1.06908	   -8.06643	 110.0	 1	    1.12000	    0.95000;
	292	 1	 2.524	 2.0	 0.0	 0.0	 1	    1.05536	   -7.88329	 110.0	 1	    1.12000	    0.95000;
	293	 1	 1.443	 0.4	 0.0	 0.0	 1	    1.10019	   -2.10662	 110.0	 1	    1.12000	    0.95000;
	294	 1	 9.466	 4.2	 0.0	 0.0	 1	    1.06422	   -7.02266	 110.0	 1	    1.12000	    0.95000;
	295	 1	 7.213	 2.5	 0.0	 0.0	 1	    1.06610	   -7.49025	 110.0	 1	    1.12000	    0.95000;
	296	 1	 2.795	 1.13	 0.0	 0.0	 1	    1.11564	   -1.55651	 110.0	 1	    1.12000	    0.95000;
	297	 1	 1.406	 1.1	 0.0	 0.0	 1	    1.06384	   -5.41181	 110.0	 1	    1.12000	    0.95000;
	298	 1	 2.164	 0.4	 0.0	 0.0	 1	    1.06749	   -7.79425	 110.0	 1	    1.12000	    0.95000;
	299	 1	 3.787	 0.5	 0.0	 0.0	 1	    1.10002	   -2.20656	 110.0	 1	    1.12000	    0.95000;
	300	 1	 3.606	 0.7	 0.0	 0.0	 1	    1.10593	   -2.93393	 110.0	 1	    1.12000	    0.95000;
	301	 1	 2.885	 1.27	 0.0	 0.0	 1	    1.10933	   -2.01241	 110.0	 1	    1.12000	    0.95000;
	302	 1	 4.598	 1.85	 0.0	 0.0	 1	    1.10309	   -2.46158	 110.0	 1	    1.12000	    0.95000;
	303	 1	 5.409	 1.0	 0.0	 0.0	 1	    1.07276	   -7.02350	 110.0	 1	    1.12000	    0.95000;
	304	 1	 0.0	 0.0	 0.0	 0.0	 1	    1.10849	   -2.00569	 110.0	 1	    1.12000	    0.95000;
	305	 1	 2.705	 1.0	 0.0	 0.0	 1	    1.05079	   -1.35296	 110.0	 1	    1.12000	    0.95000;
	306	 1	 5.86	 2.57	 0.0	 0.0	 1	    1.11560	   -1.55681	 110.0	 1	    1.12000	    0.95000;
	307	 1	 3.877	 1.56	 0.0	 0.0	 1	    1.10618	   -2.25368	 110.0	 1	    1.12000	    0.95000;
	308	 1	 5.229	 2.11	 0.0	 0.0	 1	    1.11719	   -1.66122	 110.0	 1	    1.12000	    0.95000;
	309	 1	 6.401	 2.58	 0.0	 0.0	 1	    1.10906	   -2.02780	 110.0	 1	    1.12000	    0.95000;
	310	 2	 8.934	 4.46	 0.0	 0.0	 1	    1.10997	   -1.97821	 110.0	 1	    1.12000	    0.95000;
	311	 1	 0.847	 0.56	 0.0	 0.0	 1	    1.10938	   -2.00491	 110.0	 1	    1.12000	    0.95000;
	312	 2	 7.57	 3.66	 0.0	 0.0	 1	    1.10619	   -2.34257	 110.0	 1	    1.12000	    0.95000;
	313	 1	 0.0	 0.0	 0.0	 0.0	 1	    1.10924	   -2.01805	 110.0	 1	    1.12000	    0.95000;
	314	 2	 4.173	 2.02	 0.0	 0.0	 1	    1.11811	   -1.65500	 110.0	 1	    1.12000	    0.95000;
	315	 1	 9.025	 4.72	 0.0	 0.0	 1	    1.10702	   -2.09065	 110.0	 1	    1.12000	    0.95000;
	316	 1	 4.418	 0.6	 0.0	 0.0	 1	    1.10118	   -2.16390	 110.0	 1	    1.12000	    0.95000;
	317	 1	 1.352	 0.5	 0.0	 0.0	 1	    1.07242	   -7.24335	 110.0	 1	    1.12000	    0.95000;
	318	 1	 2.254	 1.0	 0.0	 0.0	 1	    1.05293	   -8.20131	 110.0	 1	    1.12000	    0.95000;
	319	 1	 2.254	 1.25	 0.0	 0.0	 1	    1.05229	   -8.23830	 110.0	 1	    1.12000	    0.95000;
	320	 1	 3.606	 1.25	 0.0	 0.0	 1	    1.05229	   -8.23830	 110.0	 1	    1.12000	    0.95000;
	321	 1	 4.057	 2.0	 0.0	 0.0	 1	    1.06139	   -7.47659	 110.0	 1	    1.12000	    0.95000;