%%%%%%%%%%%%%%%%%%%%%%%%%%%%%%%%%%%%%%%%%%%%%%%%%%%%%%%%%%%%%%%%%%%%%%%%%%%
%%%%                                                                  %%%%%
%%%%    IEEE PES Power Grid Library - Optimal Power Flow - v17.07     %%%%%
%%%%          (https://github.com/power-grid-lib/pglib-opf)           %%%%%
%%%%             Benchmark Group - Small Angle Difference             %%%%%
%%%%                         27 - June - 2017                         %%%%%
%%%%                                                                  %%%%%
%%%%%%%%%%%%%%%%%%%%%%%%%%%%%%%%%%%%%%%%%%%%%%%%%%%%%%%%%%%%%%%%%%%%%%%%%%%

function mpc = pglib_opf_case6515_rte__sad
mpc.version = '2';
mpc.baseMVA = 100.0;

%% bus data
%	bus_i	type	Pd	Qd	Gs	Bs	area	Vm	Va	baseKV	zone	Vmax	Vmin
mpc.bus = [
	1	 1	 0.0	 0.0	 0.0	 0.0	 1	    0.99995	  -33.00771	 45.0	 1	    1.00000	    0.88889;
	2	 1	 0.0	 0.0	 0.0	 0.0	 1	    1.04715	  -13.66166	 63.0	 1	    1.06349	    0.93651;
	3	 1	 14.8	 3.8	 0.0	 0.0	 1	    0.98337	  -31.59097	 63.0	 1	    1.07937	    0.95238;
	4	 1	 49.6	 2.8	 0.0	 0.0	 1	    1.04276	  -30.83357	 90.0	 1	    1.08889	    0.93333;
	5	 1	 12.9	 0.9	 0.0	 0.0	 1	    1.02103	  -55.48373	 63.0	 1	    1.06349	    0.95238;
	6	 1	 13.0	 5.3	 0.0	 0.0	 1	    1.03366	  -11.00917	 63.0	 1	    1.07937	    0.92063;
	7	 1	 2.3	 0.2	 0.0	 0.0	 1	    1.04332	  -11.65161	 63.0	 1	    1.07937	    0.92063;
	8	 1	 15.8	 -0.3	 0.0	 0.0	 1	    1.06001	  -24.52841	 225.0	 1	    1.08889	    0.88889;
	9	 1	 14.9	 0.0	 0.0	 0.0	 1	    1.02693	  -38.44303	 63.0	 1	    1.06349	    0.93651;
	10	 1	 0.0	 0.0	 0.0	 0.0	 1	    1.04135	  -29.14694	 90.0	 1	    1.07778	    0.92222;
	11	 1	 33.2	 4.9	 0.0	 0.0	 1	    1.04135	  -29.14694	 90.0	 1	    1.07778	    0.92222;
	12	 1	 0.0	 0.0	 0.0	 0.0	 1	    1.02441	  -18.31150	 63.0	 1	    1.07937	    0.95238;
	13	 1	 0.0	 0.0	 0.0	 0.0	 1	    1.08546	   -3.41931	 380.0	 1	    1.10263	    1.05271;
	14	 1	 63.2	 13.3	 0.0	 30.4	 1	    1.06709	  -34.41923	 90.0	 1	    1.07778	    0.97778;
	15	 1	 0.0	 0.0	 0.0	 0.0	 1	    1.03078	  -14.10622	 63.0	 1	    1.07937	    0.92063;
	16	 1	 13.9	 1.9	 0.0	 0.0	 1	    1.02803	  -17.03149	 63.0	 1	    1.07937	    0.92063;
	17	 1	 10.9	 0.1	 0.0	 0.0	 1	    1.04820	  -27.34622	 90.0	 1	    1.06667	    0.97778;
	18	 1	 0.0	 0.0	 0.0	 0.0	 1	    0.96646	  -26.63749	 45.0	 1	    1.00000	    0.88889;
	19	 1	 1.0	 0.0	 0.0	 0.0	 1	    1.03396	  -22.65258	 63.0	 1	    1.06349	    0.93651;
	20	 1	 5.6	 -18.0	 0.0	 0.0	 1	    0.96718	  -26.67454	 45.0	 1	    1.00000	    0.88889;
	21	 1	 7.6	 -1.6	 0.0	 0.0	 1	    1.02452	  -15.74945	 90.0	 1	    1.06667	    0.97778;
	22	 1	 18.5	 1.0	 0.0	 0.0	 1	    1.03637	  -24.36539	 63.0	 1	    1.07937	    0.95238;
	23	 1	 22.4	 2.2	 0.0	 0.0	 1	    1.05155	  -31.54875	 63.0	 1	    1.06349	    0.93651;
	24	 1	 17.0	 -1.5	 0.0	 0.0	 1	    1.04491	  -29.32879	 90.0	 1	    1.11111	    0.95556;
	25	 1	 54.7	 -1.1	 0.0	 0.0	 1	    1.08086	  -25.67770	 90.0	 1	    1.10000	    0.94444;
	26	 1	 15.1	 10.6	 0.0	 0.0	 1	    1.03071	  -24.44032	 90.0	 1	    1.06667	    0.97778;
	27	 1	 0.0	 0.0	 0.0	 0.0	 1	    1.06866	  -19.69823	 225.0	 1	    1.08444	    1.00444;
	28	 1	 0.9	 -0.2	 0.0	 0.0	 1	    1.02377	  -32.95738	 63.0	 1	    1.07937	    0.95238;
	29	 1	 76.5	 9.4	 0.0	 0.0	 1	    1.03160	  -21.15538	 63.0	 1	    1.06349	    0.96825;
	30	 1	 39.9	 3.5	 0.0	 0.0	 1	    1.04006	  -29.54291	 90.0	 1	    1.08889	    0.93333;
	31	 1	 0.0	 0.0	 0.0	 0.0	 1	    1.06033	  -28.85208	 63.0	 1	    1.06349	    0.93651;
	32	 1	 0.0	 0.0	 0.0	 0.0	 1	    1.09499	  -25.78487	 150.0	 1	    1.10667	    0.90000;
	33	 1	 0.0	 0.0	 0.0	 0.0	 1	    1.07065	  -25.44792	 225.0	 1	    1.08889	    0.93333;
	34	 1	 0.0	 0.0	 0.0	 0.0	 1	    1.07951	  -25.59439	 225.0	 1	    1.08889	    0.93333;
	35	 1	 0.0	 0.0	 0.0	 0.0	 1	    1.05399	  -20.78307	 380.0	 1	    1.10526	    1.03947;
	36	 1	 0.0	 0.0	 0.0	 0.0	 1	    1.03947	  -19.26315	 380.0	 1	    1.10526	    1.03947;
	37	 1	 -2.7	 3.0	 0.0	 0.0	 1	    1.02425	  -16.52139	 63.0	 1	    1.07937	    0.92063;
	38	 1	 5.0	 -1.0	 0.0	 0.0	 1	    1.04756	  -27.53196	 63.0	 1	    1.09524	    0.93651;
	39	 1	 43.6	 -2.9	 0.0	 0.0	 1	    1.03086	  -42.01083	 90.0	 1	    1.07778	    0.97778;
	40	 1	 38.1	 4.1	 0.0	 0.0	 1	    1.05840	  -32.43392	 90.0	 1	    1.07778	    0.97778;
	41	 1	 0.0	 0.0	 0.0	 0.0	 1	    1.07639	  -30.51397	 225.0	 1	    1.08889	    1.00444;
	42	 1	 0.0	 0.0	 0.0	 0.0	 1	    1.13050	  -13.37235	 63.0	 1	    1.13099	    0.95238;
	43	 1	 3.2	 2.7	 0.0	 0.0	 1	    1.04466	  -31.83923	 90.0	 1	    1.07778	    0.97778;
	44	 1	 13.3	 0.1	 0.0	 0.0	 1	    1.02567	  -50.90879	 63.0	 1	    1.06349	    0.95238;
	45	 1	 3.8	 1.6	 0.0	 0.0	 1	    1.02596	  -34.82351	 90.0	 1	    1.06667	    0.97778;
	46	 1	 0.0	 0.0	 0.0	 0.0	 1	    1.05355	  -30.27803	 63.0	 1	    1.06349	    0.93651;
	47	 2	 0.0	 0.0	 0.0	 0.0	 1	    1.06349	  -28.33404	 63.0	 1	    1.06349	    0.93651;
	48	 1	 40.4	 5.6	 0.0	 0.0	 1	    1.03133	  -31.27767	 90.0	 1	    1.07778	    0.92222;
	49	 1	 9.8	 -1.9	 0.0	 0.0	 1	    1.02048	  -22.81725	 63.0	 1	    1.06349	    0.93651;
	50	 1	 0.0	 0.0	 0.0	 0.0	 1	    1.05269	  -33.94378	 63.0	 1	    1.06927	    0.93651;
	51	 1	 0.0	 0.0	 0.0	 0.0	 1	    1.04096	  -28.83292	 225.0	 1	    1.08889	    0.93333;
	52	 1	 6.5	 2.9	 0.0	 0.0	 1	    1.04025	  -36.83400	 90.0	 1	    1.06667	    0.97778;
	53	 1	 0.0	 -1.3	 0.0	 0.0	 1	    1.00645	  -33.37134	 63.0	 1	    1.04762	    0.95238;
	54	 1	 0.3	 -0.3	 0.0	 0.0	 1	    1.03957	  -18.31723	 90.0	 1	    1.06667	    0.97778;
	55	 1	 50.9	 12.3	 0.0	 0.0	 1	    1.08387	  -34.37330	 225.0	 1	    1.08889	    1.00444;
	56	 1	 75.5	 20.5	 0.0	 0.0	 1	    1.07648	  -31.23655	 225.0	 1	    1.08889	    1.00444;
	57	 2	 0.0	 0.0	 0.0	 0.0	 1	    1.07006	   -7.17661	 63.0	 1	    1.07937	    0.92063;
	58	 1	 154.0	 36.4	 0.0	 0.0	 1	    1.08373	  -34.39009	 225.0	 1	    1.08889	    1.00444;
	59	 1	 5.0	 1.0	 0.0	 0.0	 1	    1.00406	  -29.62214	 63.0	 1	    1.07937	    0.95238;
	60	 1	 0.0	 0.0	 0.0	 0.0	 1	    1.04154	  -23.30640	 63.0	 1	    1.07937	    0.95238;
	61	 1	 46.3	 11.9	 0.0	 0.0	 1	    1.00793	  -26.17649	 63.0	 1	    1.07937	    0.95238;
	62	 1	 0.0	 0.0	 0.0	 0.0	 1	    1.02473	  -23.50375	 63.0	 1	    1.07937	    0.95238;
	63	 1	 16.8	 2.9	 0.0	 0.0	 1	    1.02041	  -17.17482	 63.0	 1	    1.07937	    0.95238;
	64	 1	 67.3	 7.1	 0.0	 0.0	 1	    1.06874	  -23.61508	 225.0	 1	    1.08889	    0.88889;
	65	 1	 12.0	 2.8	 0.0	 0.0	 1	    1.02056	  -26.81433	 63.0	 1	    1.07937	    0.95238;
	66	 1	 13.0	 -6.4	 0.0	 0.0	 1	    1.03500	  -25.36768	 63.0	 1	    1.06349	    0.93651;
	67	 1	 1.0	 0.0	 0.0	 0.0	 1	    1.04132	  -14.87287	 63.0	 1	    1.07937	    0.92063;
	68	 1	 53.1	 1.1	 0.0	 0.0	 1	    1.00350	  -23.30322	 63.0	 1	    1.06349	    0.93651;
	69	 1	 20.8	 1.3	 0.0	 0.0	 1	    1.04403	  -55.82387	 63.0	 1	    1.06349	    0.95238;
	70	 1	 10.6	 4.2	 0.0	 0.0	 1	    1.03544	  -16.91504	 63.0	 1	    1.07937	    0.95238;
	71	 1	 69.4	 17.5	 0.0	 0.0	 1	    1.03986	  -34.25224	 63.0	 1	    1.04762	    0.95238;
	72	 1	 0.0	 0.0	 0.0	 0.0	 1	    1.08579	  -24.35561	 225.0	 1	    1.08889	    1.00444;
	73	 1	 0.0	 0.0	 0.0	 0.0	 1	    1.08579	  -24.35561	 225.0	 1	    1.08889	    1.00444;
	74	 1	 58.8	 -5.0	 0.0	 0.0	 1	    1.06930	  -23.49249	 225.0	 1	    1.08889	    0.88889;
	75	 1	 25.2	 1.9	 0.0	 0.0	 1	    1.05301	  -26.30115	 90.0	 1	    1.06667	    0.97778;
	76	 1	 5.9	 -2.1	 0.0	 0.0	 1	    1.08500	  -14.04558	 225.0	 1	    1.08889	    0.98667;
	77	 1	 43.7	 0.4	 0.0	 0.0	 1	    0.99869	  -25.35979	 63.0	 1	    1.06349	    0.93651;
	78	 1	 0.0	 0.0	 0.0	 0.0	 1	    1.02174	  -13.24264	 63.0	 1	    1.07937	    0.92063;
	79	 1	 0.0	 0.0	 0.0	 0.0	 1	    1.01467	  -32.66327	 63.0	 1	    1.04762	    0.95238;
	80	 1	 32.4	 10.5	 0.0	 0.0	 1	    1.05304	  -32.39709	 225.0	 1	    1.08889	    1.00444;
	81	 1	 32.4	 9.1	 0.0	 0.0	 1	    1.05306	  -32.39704	 225.0	 1	    1.08889	    1.00444;
	82	 1	 11.3	 0.3	 0.0	 0.0	 1	    1.03008	  -22.29379	 63.0	 1	    1.06349	    0.93651;
	83	 1	 79.0	 24.8	 0.0	 0.0	 1	    1.05959	  -31.56436	 225.0	 1	    1.08889	    1.00444;
	84	 1	 -0.1	 0.4	 0.0	 0.0	 1	    1.04516	  -15.72082	 63.0	 1	    1.06349	    0.93651;
	85	 1	 0.7	 -1.5	 0.0	 0.0	 1	    1.04145	  -12.93717	 63.0	 1	    1.06349	    0.93651;
	86	 1	 48.8	 5.2	 0.0	 0.0	 1	    1.02415	  -43.38533	 90.0	 1	    1.06667	    0.97778;
	87	 1	 0.0	 0.0	 0.0	 0.0	 1	    1.03030	  -17.77152	 63.0	 1	    1.07937	    0.95238;
	88	 1	 14.8	 -1.2	 0.0	 0.0	 1	    1.05390	  -18.15099	 63.0	 1	    1.06349	    0.93651;
	89	 1	 26.2	 0.3	 0.0	 0.0	 1	    1.04006	  -34.51058	 90.0	 1	    1.07778	    0.97778;
	90	 1	 0.2	 -2.3	 0.0	 0.0	 1	    0.96823	  -27.18510	 45.0	 1	    1.00000	    0.88889;
	91	 1	 0.0	 0.0	 0.0	 0.0	 1	    0.96646	  -26.63749	 45.0	 1	    1.00000	    0.88889;
	92	 1	 31.8	 1.1	 0.0	 0.0	 1	    1.03634	  -16.27229	 63.0	 1	    1.06349	    0.96825;
	93	 1	 2.0	 -2.8	 0.0	 0.0	 1	    0.97755	  -28.00369	 45.0	 1	    1.00000	    0.88889;
	94	 1	 18.2	 -4.0	 0.0	 0.0	 1	    1.04329	  -24.44868	 90.0	 1	    1.06667	    0.97778;
	95	 1	 57.2	 9.4	 0.0	 0.0	 1	    1.03523	  -36.32585	 90.0	 1	    1.06667	    0.97778;
	96	 1	 0.9	 -0.2	 0.0	 0.0	 1	    1.05988	  -29.07134	 63.0	 1	    1.06349	    0.93651;
	97	 1	 57.7	 3.8	 0.0	 0.0	 1	    1.06202	  -12.56693	 63.0	 1	    1.07937	    0.92063;
	98	 1	 9.5	 1.0	 0.0	 0.0	 1	    1.02900	  -27.65557	 63.0	 1	    1.07937	    0.95238;
	99	 1	 35.8	 5.9	 0.0	 0.0	 1	    1.01590	  -25.82617	 63.0	 1	    1.07937	    0.95238;
	100	 1	 63.0	 7.8	 0.0	 0.0	 1	    1.00790	  -34.85082	 63.0	 1	    1.06349	    0.93651;
	101	 1	 17.3	 -0.8	 0.0	 0.0	 1	    1.04465	  -16.39780	 63.0	 1	    1.06349	    0.93651;
	102	 2	 0.0	 0.0	 0.0	 0.0	 1	    1.05458	  -12.05534	 63.0	 1	    1.07937	    0.95238;
	103	 1	 12.6	 -1.2	 0.0	 0.0	 1	    1.02929	  -23.45532	 63.0	 1	    1.07937	    0.95238;
	104	 1	 0.0	 0.0	 0.0	 0.0	 1	    1.06283	  -20.58735	 225.0	 1	    1.08889	    0.98667;
	105	 1	 36.9	 2.2	 0.0	 0.0	 1	    1.05110	  -23.47765	 225.0	 1	    1.08889	    0.88889;
	106	 1	 58.2	 10.7	 0.0	 0.0	 1	    1.06183	  -28.13419	 90.0	 1	    1.10000	    0.94444;
	107	 1	 107.0	 14.3	 0.0	 0.0	 1	    1.04612	  -29.60115	 225.0	 1	    1.08444	    1.00889;
	108	 1	 12.2	 -2.4	 0.0	 0.0	 1	    1.05430	  -29.12823	 90.0	 1	    1.07778	    0.97778;
	109	 1	 67.8	 8.7	 0.0	 0.0	 1	    1.05455	  -19.17755	 63.0	 1	    1.06349	    0.93651;
	110	 1	 0.0	 0.0	 0.0	 0.0	 1	    1.03327	  -17.32124	 225.0	 1	    1.08889	    0.93333;
	111	 1	 38.7	 -7.5	 0.0	 0.0	 1	    1.03427	  -18.82489	 63.0	 1	    1.06349	    0.96825;
	112	 1	 0.0	 0.0	 0.0	 0.0	 1	    1.02509	  -32.12385	 63.0	 1	    1.04762	    0.95238;
	113	 1	 0.0	 0.0	 0.0	 0.0	 1	    1.05830	  -28.59299	 225.0	 1	    1.08889	    1.00444;
	114	 1	 13.4	 1.1	 0.0	 0.0	 1	    1.04972	  -33.97706	 63.0	 1	    1.06349	    0.93651;
	115	 1	 0.0	 0.0	 0.0	 0.0	 1	    1.08547	   -3.41939	 380.0	 1	    1.10526	    1.05263;
	116	 1	 0.0	 0.0	 0.0	 0.0	 1	    1.08547	   -3.41939	 380.0	 1	    1.10526	    1.05263;
	117	 1	 14.9	 0.2	 0.0	 0.0	 1	    1.01040	  -33.39933	 63.0	 1	    1.07937	    0.95238;
	118	 1	 2.0	 0.7	 0.0	 0.0	 1	    1.05538	  -25.99514	 90.0	 1	    1.06667	    0.97778;
	119	 1	 40.6	 6.9	 0.0	 0.0	 1	    0.98249	  -17.41516	 63.0	 1	    1.06349	    0.93651;
	120	 1	 22.0	 -2.3	 0.0	 0.0	 1	    1.06162	  -31.47334	 63.0	 1	    1.06349	    0.93651;
	121	 1	 20.8	 1.4	 0.0	 0.0	 1	    1.01990	  -19.52611	 63.0	 1	    1.07937	    0.92063;
	122	 2	 0.0	 0.0	 0.0	 0.0	 1	    1.03122	  -24.05482	 63.0	 1	    1.07937	    0.95238;
	123	 1	 12.0	 4.6	 0.0	 0.0	 1	    1.02787	  -24.22675	 63.0	 1	    1.07937	    0.95238;
	124	 1	 8.0	 -0.4	 0.0	 0.0	 1	    1.03830	  -24.61952	 90.0	 1	    1.06667	    0.97778;
	125	 1	 11.1	 0.4	 0.0	 0.0	 1	    1.05953	  -21.22548	 63.0	 1	    1.07937	    0.95238;
	126	 1	 0.2	 0.8	 0.0	 0.0	 1	    1.04217	  -11.09234	 63.0	 1	    1.06349	    0.93651;
	127	 1	 14.7	 2.7	 0.0	 0.0	 1	    1.01887	  -35.32867	 63.0	 1	    1.04762	    0.95238;
	128	 1	 13.8	 7.2	 0.0	 0.0	 1	    1.05555	   -9.02525	 63.0	 1	    1.06349	    0.96825;
	129	 1	 19.1	 10.8	 0.0	 0.0	 1	    1.05982	   -6.93508	 63.0	 1	    1.06349	    0.96825;
	130	 1	 0.0	 0.0	 0.0	 0.0	 1	    1.07634	   -7.24540	 225.0	 1	    1.08444	    1.00889;
	131	 1	 119.3	 12.0	 0.0	 0.0	 1	    1.07453	  -15.29313	 225.0	 1	    1.08444	    1.00889;
	132	 2	 9.4	 0.0	 0.0	 0.0	 1	    1.07778	   -3.50575	 90.0	 1	    1.07778	    0.92222;
	133	 1	 2.7	 0.4	 0.0	 0.0	 1	    0.99500	  -36.09283	 63.0	 1	    1.04762	    0.95238;
	134	 1	 101.1	 27.4	 0.0	 0.0	 1	    1.03729	  -32.87396	 225.0	 1	    1.08889	    1.00444;
	135	 1	 0.0	 0.0	 0.0	 0.0	 1	    1.08470	  -34.20144	 225.0	 1	    1.08889	    1.00444;
	136	 1	 23.9	 1.4	 0.0	 0.0	 1	    1.04464	  -41.60617	 90.0	 1	    1.07778	    0.97778;
	137	 2	 8.7	 -3.0	 0.0	 0.0	 1	    1.02757	  -17.05033	 63.0	 1	    1.06349	    0.96825;
	138	 1	 0.0	 0.0	 0.0	 0.0	 1	    1.06102	  -17.92808	 150.0	 1	    1.08000	    0.96667;
	139	 1	 8.0	 7.1	 0.0	 0.0	 1	    1.04547	   -4.36542	 63.0	 1	    1.07937	    0.92063;
	140	 1	 0.0	 0.0	 0.0	 80.0	 1	    1.07546	   -1.13132	 225.0	 1	    1.08889	    1.00000;
	141	 1	 0.0	 0.0	 0.0	 0.0	 1	    1.08722	    2.09433	 380.0	 1	    1.10526	    1.05263;
	142	 1	 22.4	 7.4	 0.0	 0.0	 1	    1.00818	  -29.11111	 63.0	 1	    1.07937	    0.95238;
	143	 1	 0.0	 0.0	 0.0	 0.0	 1	    1.03685	  -24.31179	 225.0	 1	    1.08889	    0.98667;
	144	 1	 16.0	 5.0	 0.0	 0.0	 1	    1.05396	  -27.08010	 90.0	 1	    1.11111	    0.95556;
	145	 1	 23.4	 9.0	 0.0	 0.0	 1	    1.07038	  -23.32009	 225.0	 1	    1.08889	    0.96889;
	146	 1	 0.0	 0.0	 0.0	 0.0	 1	    1.08264	  -20.06108	 380.0	 1	    1.10526	    1.00000;
	147	 1	 30.0	 5.5	 0.0	 0.0	 1	    1.03249	  -31.55787	 63.0	 1	    1.06349	    0.93651;
	148	 1	 6.6	 1.2	 0.0	 0.0	 1	    1.03871	  -21.71720	 63.0	 1	    1.06349	    0.93651;
	149	 1	 16.9	 4.1	 0.0	 0.0	 1	    1.04629	  -36.06140	 90.0	 1	    1.06667	    0.97778;
	150	 1	 48.5	 3.2	 0.0	 0.0	 1	    1.05825	  -29.32468	 63.0	 1	    1.06349	    0.93651;
	151	 1	 0.0	 0.0	 0.0	 0.0	 1	    1.01043	  -21.81881	 63.0	 1	    1.06349	    0.96825;
	152	 1	 45.3	 12.0	 0.0	 7.7	 1	    1.01034	  -20.56526	 63.0	 1	    1.06349	    0.96825;
	153	 1	 27.3	 -5.5	 0.0	 0.0	 1	    1.03652	  -27.96669	 63.0	 1	    1.06349	    0.93651;
	154	 1	 0.0	 0.0	 0.0	 0.0	 1	    1.05849	  -23.66522	 225.0	 1	    1.08889	    0.93333;
	155	 2	 0.0	 0.0	 0.0	 0.0	 1	    1.02068	   -4.17140	 63.0	 1	    1.07937	    0.92063;
	156	 1	 0.0	 0.0	 0.0	 0.0	 1	    1.01038	  -21.82403	 63.0	 1	    1.06349	    0.96825;
	157	 1	 0.0	 -2.2	 0.0	 0.0	 1	    0.94361	  -29.80008	 45.0	 1	    1.00000	    0.88889;
	158	 2	 0.0	 0.0	 0.0	 0.0	 1	    0.97860	  -27.50325	 45.0	 1	    1.00000	    0.88889;
	159	 1	 0.0	 0.0	 0.0	 0.0	 1	    1.04466	  -31.97684	 63.0	 1	    1.06349	    0.93651;
	160	 1	 41.7	 5.9	 0.0	 0.0	 1	    1.05906	  -22.23535	 225.0	 1	    1.08889	    0.88889;
	161	 1	 43.7	 10.0	 0.0	 0.0	 1	    1.05888	  -22.23913	 225.0	 1	    1.08889	    0.88889;
	162	 1	 -0.3	 -1.6	 0.0	 0.0	 1	    1.04226	  -21.43237	 90.0	 1	    1.06667	    0.97778;
	163	 1	 0.0	 0.0	 0.0	 0.0	 1	    1.03462	  -24.13257	 63.0	 1	    1.07937	    0.95238;
	164	 1	 0.0	 0.0	 0.0	 0.0	 1	    1.03462	  -24.13257	 63.0	 1	    1.07937	    0.95238;
	165	 1	 16.5	 14.6	 0.0	 0.0	 1	    1.07203	  -31.28425	 20.0	 1	    1.15000	    0.80000;
	166	 1	 13.3	 3.2	 0.0	 0.0	 1	    1.04714	  -35.57887	 90.0	 1	    1.06667	    0.97778;
	167	 1	 17.8	 -0.8	 0.0	 0.0	 1	    1.04215	  -36.06479	 90.0	 1	    1.06667	    0.97778;
	168	 1	 0.0	 0.0	 0.0	 0.0	 1	    1.07216	  -31.27794	 225.0	 1	    1.08444	    1.00444;
	169	 1	 9.9	 -0.9	 0.0	 0.0	 1	    1.02837	  -27.28038	 90.0	 1	    1.06667	    0.97778;
	170	 1	 79.8	 13.5	 0.0	 0.0	 1	    1.04072	  -34.38111	 90.0	 1	    1.07778	    0.97778;
	171	 1	 28.0	 0.8	 0.0	 30.0	 1	    1.05560	  -38.18327	 90.0	 1	    1.07778	    0.97778;
	172	 1	 0.0	 0.0	 0.0	 0.0	 1	    1.06157	  -33.70659	 225.0	 1	    1.08889	    1.00444;
	173	 1	 28.5	 8.0	 0.0	 0.0	 1	    1.07411	  -25.04785	 90.0	 1	    1.08889	    0.93333;
	174	 1	 59.7	 11.6	 0.0	 0.0	 1	    1.07352	  -28.79938	 90.0	 1	    1.11111	    0.95556;
	175	 1	 0.0	 0.0	 0.0	 0.0	 1	    1.02558	   -3.75483	 63.0	 1	    1.07937	    0.92063;
	176	 2	 0.0	 0.0	 0.0	 0.0	 1	    1.06880	   -1.81620	 150.0	 1	    1.10000	    0.90000;
	177	 1	 0.0	 0.0	 0.0	 0.0	 1	    1.07472	  -31.79671	 225.0	 1	    1.08889	    1.00444;
	178	 1	 0.0	 0.0	 0.0	 0.0	 1	    1.07472	  -31.79671	 225.0	 1	    1.08889	    1.00444;
	179	 1	 0.0	 0.0	 0.0	 0.0	 1	    1.01907	  -35.31474	 63.0	 1	    1.04762	    0.95238;
	180	 1	 0.0	 0.0	 0.0	 0.0	 1	    1.07472	  -31.79671	 225.0	 1	    1.08889	    1.00444;
	181	 1	 12.7	 -5.3	 0.0	 0.0	 1	    1.05281	  -14.78166	 63.0	 1	    1.07937	    0.92063;
	182	 1	 16.0	 3.1	 0.0	 0.0	 1	    1.01984	  -17.55239	 63.0	 1	    1.06349	    0.93651;
	183	 1	 5.5	 -1.7	 0.0	 0.0	 1	    1.02368	  -29.97925	 63.0	 1	    1.07937	    0.95238;
	184	 1	 5.0	 1.4	 0.0	 0.0	 1	    1.07103	  -28.50399	 90.0	 1	    1.07778	    0.97778;
	185	 1	 30.6	 2.7	 0.0	 0.0	 1	    0.99957	  -30.02049	 63.0	 1	    1.07937	    0.95238;
	186	 1	 1.2	 0.2	 0.0	 0.0	 1	    1.03917	  -21.68506	 90.0	 1	    1.06667	    0.97778;
	187	 2	 0.0	 0.0	 0.0	 0.0	 1	    1.03285	   -6.63666	 63.0	 1	    1.07937	    0.92063;
	188	 1	 0.0	 0.0	 0.0	 0.0	 1	    1.07991	   -5.31291	 63.0	 1	    1.09875	    0.92063;
	189	 1	 16.8	 1.8	 0.0	 0.0	 1	    1.02297	  -11.11738	 63.0	 1	    1.07937	    0.92063;
	190	 2	 0.0	 0.0	 0.0	 0.0	 1	    0.96981	  -27.76335	 45.0	 1	    1.00000	    0.88889;
	191	 1	 15.4	 -1.1	 0.0	 0.0	 1	    1.02801	  -27.11276	 90.0	 1	    1.06667	    0.97778;
	192	 1	 9.9	 -0.0	 0.0	 0.0	 1	    1.07152	   -7.58403	 63.0	 1	    1.07937	    0.92063;
	193	 1	 0.1	 0.7	 0.0	 0.0	 1	    1.05855	  -29.11684	 225.0	 1	    1.08889	    1.00444;
	194	 2	 0.7	 -1.6	 0.0	 0.0	 1	    1.05764	  -10.70860	 63.0	 1	    1.07937	    0.92063;
	195	 1	 0.0	 0.0	 0.0	 0.0	 1	    1.06362	  -32.96395	 63.0	 1	    1.06362	    0.95238;
	196	 1	 0.0	 0.0	 0.0	 0.0	 1	    1.06362	  -32.96399	 63.0	 1	    1.06362	    0.95238;
	197	 1	 27.5	 -0.6	 0.0	 15.0	 1	    1.04731	  -19.93452	 63.0	 1	    1.07937	    0.92063;
	198	 1	 11.1	 -0.8	 0.0	 0.0	 1	    1.02027	  -13.05201	 63.0	 1	    1.07937	    0.92063;
	199	 1	 12.6	 2.7	 0.0	 0.0	 1	    1.03047	  -42.97211	 90.0	 1	    1.06667	    0.97778;
	200	 1	 0.0	 0.0	 0.0	 0.0	 1	    1.08747	   -9.04983	 225.0	 1	    1.08889	    1.00000;
	201	 1	 81.0	 25.6	 0.0	 0.0	 1	    1.04590	  -23.83242	 225.0	 1	    1.08889	    0.88889;
	202	 1	 49.8	 2.0	 0.0	 0.0	 1	    1.01732	  -27.55339	 63.0	 1	    1.06349	    0.96825;
	203	 1	 28.6	 3.7	 0.0	 0.0	 1	    1.07071	  -22.80164	 90.0	 1	    1.10000	    0.94444;
	204	 1	 0.0	 0.0	 0.0	 0.0	 1	    1.07374	  -19.49937	 225.0	 1	    1.08889	    0.96889;
	205	 1	 0.0	 0.0	 0.0	 0.0	 1	    1.08820	  -16.05915	 380.0	 1	    1.10526	    1.00000;
	206	 1	 54.4	 9.9	 0.0	 0.0	 1	    1.02943	  -24.73618	 63.0	 1	    1.06349	    0.96825;
	207	 1	 33.9	 4.5	 0.0	 0.0	 1	    1.01862	  -10.02228	 63.0	 1	    1.06349	    0.96825;
	208	 1	 16.6	 -0.8	 0.0	 0.0	 1	    1.03879	  -29.48055	 90.0	 1	    1.07778	    0.97778;
	209	 1	 2.2	 1.1	 0.0	 0.0	 1	    1.04767	  -17.06423	 63.0	 1	    1.06349	    0.96825;
	210	 1	 41.5	 6.3	 0.0	 0.0	 1	    1.02434	  -13.74323	 63.0	 1	    1.06349	    0.96825;
	211	 1	 32.5	 14.0	 0.0	 0.0	 1	    1.02427	  -13.61144	 63.0	 1	    1.06349	    0.96825;
	212	 1	 0.0	 0.0	 0.0	 0.0	 1	    1.07008	  -13.54709	 225.0	 1	    1.08444	    1.00889;
	213	 1	 0.0	 0.0	 0.0	 0.0	 1	    1.06997	  -13.53522	 225.0	 1	    1.08444	    1.00889;
	214	 1	 43.1	 4.5	 0.0	 30.4	 1	    1.06211	  -37.97123	 90.0	 1	    1.07778	    0.97778;
	215	 1	 0.0	 0.0	 0.0	 0.0	 1	    1.06391	  -33.94474	 225.0	 1	    1.08889	    1.00444;
	216	 1	 21.1	 -3.5	 0.0	 0.0	 1	    1.01334	  -20.82339	 63.0	 1	    1.06349	    0.95238;
	217	 1	 31.1	 2.7	 0.0	 0.0	 1	    1.01574	  -30.73134	 90.0	 1	    1.06667	    0.97778;
	218	 1	 3.3	 -0.4	 0.0	 0.0	 1	    1.03941	  -18.30885	 90.0	 1	    1.06667	    0.97778;
	219	 1	 11.1	 -4.9	 0.0	 0.0	 1	    1.05269	  -24.45676	 90.0	 1	    1.06667	    0.97778;
	220	 1	 14.8	 3.5	 0.0	 0.0	 1	    1.03402	  -16.86463	 63.0	 1	    1.07937	    0.95238;
	221	 1	 13.0	 -6.8	 0.0	 0.0	 1	    1.04062	  -13.38347	 63.0	 1	    1.06349	    0.93651;
	222	 1	 0.0	 0.0	 0.0	 0.0	 1	    1.08551	   -8.97936	 225.0	 1	    1.08975	    0.93333;
	223	 1	 42.4	 2.2	 0.0	 0.0	 1	    1.02497	  -15.14915	 63.0	 1	    1.07937	    0.92063;
	224	 2	 0.0	 0.0	 0.0	 0.0	 1	    1.06875	   -1.81523	 150.0	 1	    1.10000	    0.90000;
	225	 1	 76.8	 16.6	 0.0	 0.0	 1	    1.08111	  -13.02071	 225.0	 1	    1.08444	    1.00889;
	226	 1	 77.8	 71.5	 0.0	 0.0	 1	    1.08025	  -13.01307	 225.0	 1	    1.08444	    1.00889;
	227	 1	 5.0	 -1.9	 0.0	 0.0	 1	    1.01702	  -58.93377	 63.0	 1	    1.06349	    0.95238;
	228	 1	 10.9	 -2.0	 0.0	 0.0	 1	    1.01297	  -59.46625	 63.0	 1	    1.06349	    0.95238;
	229	 1	 12.0	 -5.0	 0.0	 0.0	 1	    1.05781	  -10.63825	 63.0	 1	    1.07937	    0.92063;
	230	 1	 0.0	 0.0	 0.0	 0.0	 1	    1.08228	  -13.33688	 225.0	 1	    1.08889	    0.97778;
	231	 1	 7.0	 -1.4	 0.0	 0.0	 1	    1.03251	  -25.99016	 90.0	 1	    1.06667	    0.97778;
	232	 1	 7.2	 0.1	 0.0	 0.0	 1	    1.06130	  -15.01881	 90.0	 1	    1.08889	    0.93333;
	233	 1	 0.0	 0.0	 0.0	 0.0	 1	    1.04621	  -23.67415	 20.0	 1	    1.15000	    0.80000;
	234	 1	 24.7	 8.1	 0.0	 0.0	 1	    1.04621	  -23.67415	 90.0	 1	    1.08889	    0.93333;
	235	 1	 17.7	 3.3	 0.0	 0.0	 1	    1.05476	  -19.92520	 225.0	 1	    1.08889	    0.88889;
	236	 1	 28.6	 1.0	 0.0	 0.0	 1	    1.04727	  -29.74141	 90.0	 1	    1.07778	    0.92222;
	237	 1	 43.7	 5.2	 0.0	 0.0	 1	    1.05105	  -30.99427	 63.0	 1	    1.06349	    0.93651;
	238	 1	 25.2	 -1.7	 0.0	 0.0	 1	    1.05603	  -25.58871	 90.0	 1	    1.06667	    0.97778;
	239	 1	 53.9	 4.3	 0.0	 0.0	 1	    1.02770	  -59.90973	 63.0	 1	    1.06349	    0.95238;
	240	 1	 51.1	 9.5	 0.0	 0.0	 1	    1.02181	  -13.23879	 63.0	 1	    1.07937	    0.92063;
	241	 1	 56.7	 9.4	 0.0	 0.0	 1	    1.01389	  -17.98382	 90.0	 1	    1.07778	    0.92222;
	242	 1	 56.2	 8.6	 0.0	 0.0	 1	    1.02273	  -23.68766	 63.0	 1	    1.06349	    0.96825;
	243	 1	 26.7	 -2.3	 0.0	 0.0	 1	    1.01073	  -17.26614	 63.0	 1	    1.07937	    0.92063;
	244	 1	 58.0	 3.7	 0.0	 0.0	 1	    1.05355	   -5.32481	 90.0	 1	    1.07778	    0.92222;
	245	 1	 13.7	 -2.2	 0.0	 0.0	 1	    1.02753	  -21.13050	 63.0	 1	    1.07937	    0.92063;
	246	 2	 13.7	 7.5	 0.0	 0.0	 1	    1.02841	  -26.51665	 63.0	 1	    1.06349	    0.93651;
	247	 1	 0.0	 0.0	 0.0	 0.0	 1	    1.05898	  -24.90050	 225.0	 1	    1.08889	    0.93333;
	248	 1	 33.4	 13.1	 0.0	 0.0	 1	    1.07525	  -31.49032	 225.0	 1	    1.08889	    1.00444;
	249	 1	 26.1	 0.9	 0.0	 0.0	 1	    1.03077	  -16.90080	 63.0	 1	    1.07937	    0.92063;
	250	 1	 27.4	 -9.4	 0.0	 0.0	 1	    1.00201	  -33.59612	 63.0	 1	    1.07937	    0.95238;
	251	 1	 10.6	 3.5	 0.0	 0.0	 1	    1.03839	  -34.74254	 90.0	 1	    1.06667	    0.97778;
	252	 1	 9.6	 -1.8	 0.0	 0.0	 1	    1.03734	  -22.59736	 90.0	 1	    1.06667	    0.97778;
	253	 1	 54.1	 5.3	 0.0	 0.0	 1	    1.03276	  -28.19425	 63.0	 1	    1.07937	    0.95238;
	254	 1	 20.0	 1.9	 0.0	 0.0	 1	    1.02832	  -32.79957	 63.0	 1	    1.07937	    0.95238;
	255	 1	 9.5	 -0.2	 0.0	 0.0	 1	    1.02915	  -17.14782	 63.0	 1	    1.06349	    0.93651;
	256	 2	 1.8	 0.0	 0.0	 0.0	 1	    1.07109	   -7.20505	 63.0	 1	    1.07937	    0.92063;
	257	 1	 0.0	 0.0	 0.0	 0.0	 1	    1.08889	   -9.23143	 225.0	 1	    1.08889	    1.00000;
	258	 2	 -0.0	 0.0	 0.0	 0.0	 1	    1.07778	   -1.56257	 90.0	 1	    1.07778	    0.92222;
	259	 1	 33.0	 -2.2	 0.0	 0.0	 1	    1.04114	  -24.87300	 63.0	 1	    1.07937	    0.95238;
	260	 1	 0.0	 0.0	 0.0	 0.0	 1	    1.07086	  -22.63884	 225.0	 1	    1.08889	    0.98667;
	261	 2	 0.0	 0.0	 0.0	 0.0	 1	    1.05527	  -15.06114	 63.0	 1	    1.07937	    0.92063;
	262	 1	 0.0	 0.0	 0.0	 80.0	 1	    1.06454	  -21.55670	 225.0	 1	    1.08889	    0.88889;
	263	 1	 0.0	 0.0	 0.0	 0.0	 1	    1.05327	  -22.85656	 225.0	 1	    1.08889	    0.88889;
	264	 1	 0.0	 0.0	 0.0	 0.0	 1	    1.06941	  -18.20607	 380.0	 1	    1.10526	    1.01316;
	265	 1	 0.0	 0.0	 0.0	 0.0	 1	    0.99986	  -34.37355	 63.0	 1	    1.04762	    0.95238;
	266	 1	 32.5	 7.6	 0.0	 0.0	 1	    1.07068	  -31.41334	 225.0	 1	    1.08889	    1.00444;
	267	 1	 66.3	 12.7	 0.0	 0.0	 1	    1.05230	  -32.58731	 225.0	 1	    1.08889	    1.00444;
	268	 1	 12.2	 10.9	 0.0	 0.0	 1	    1.01882	  -13.27391	 63.0	 1	    1.07937	    0.92063;
	269	 1	 23.2	 1.1	 0.0	 0.0	 1	    1.02679	  -19.00771	 63.0	 1	    1.07937	    0.92063;
	270	 1	 0.0	 0.0	 0.0	 0.0	 1	    1.07195	   -8.49402	 225.0	 1	    1.08889	    0.97778;
	271	 1	 0.0	 0.0	 0.0	 0.0	 1	    1.07195	   -8.49457	 225.0	 1	    1.08889	    0.97778;
	272	 1	 45.8	 4.3	 0.0	 0.0	 1	    1.04817	  -13.50433	 63.0	 1	    1.06349	    0.96825;
	273	 1	 28.5	 3.5	 0.0	 0.0	 1	    1.06879	   -9.30353	 225.0	 1	    1.08444	    1.00889;
	274	 1	 54.5	 9.1	 0.0	 0.0	 1	    1.07400	  -28.69712	 90.0	 1	    1.10000	    0.94444;
	275	 1	 0.0	 0.0	 0.0	 0.0	 1	    1.08069	  -26.05446	 225.0	 1	    1.08444	    1.00444;
	276	 1	 0.0	 0.0	 0.0	 0.0	 1	    1.09727	  -20.14964	 380.0	 1	    1.10263	    1.04211;
	277	 1	 3.7	 2.3	 0.0	 0.0	 1	    1.05018	  -28.99890	 90.0	 1	    1.06667	    0.97778;
	278	 1	 1.5	 4.6	 0.0	 0.0	 1	    1.08037	  -26.11260	 225.0	 1	    1.08444	    1.00444;
	279	 1	 11.0	 -2.1	 0.0	 0.0	 1	    1.00369	  -42.14765	 63.0	 1	    1.06349	    0.93651;
	280	 1	 44.0	 14.3	 0.0	 0.0	 1	    1.04442	  -36.41742	 90.0	 1	    1.07778	    0.97778;
	281	 1	 12.8	 0.9	 0.0	 0.0	 1	    1.03104	  -25.51424	 63.0	 1	    1.07937	    0.95238;
	282	 2	 0.0	 0.0	 0.0	 0.0	 1	    1.02841	  -26.51666	 63.0	 1	    1.06349	    0.93651;
	283	 1	 12.1	 -0.2	 0.0	 0.0	 1	    1.03405	  -36.58721	 90.0	 1	    1.06667	    0.97778;
	284	 1	 16.8	 4.6	 0.0	 0.0	 1	    1.02560	  -16.07326	 63.0	 1	    1.07937	    0.95238;
	285	 1	 -1.7	 4.6	 0.0	 0.0	 1	    1.07738	  -31.06430	 225.0	 1	    1.08889	    1.00444;
	286	 1	 32.2	 20.5	 0.0	 0.0	 1	    1.07720	  -31.07924	 225.0	 1	    1.08889	    1.00444;
	287	 1	 35.7	 -2.3	 0.0	 0.0	 1	    1.04061	  -25.56214	 90.0	 1	    1.06667	    0.97778;
	288	 1	 36.8	 -2.8	 0.0	 0.0	 1	    1.04668	  -28.60844	 90.0	 1	    1.06667	    0.97778;
	289	 1	 43.6	 9.7	 0.0	 0.0	 1	    1.08417	  -13.46110	 225.0	 1	    1.08889	    0.88889;
	290	 1	 7.3	 3.7	 0.0	 0.0	 1	    1.07481	  -23.44839	 90.0	 1	    1.11111	    0.95556;
	291	 1	 15.8	 0.3	 0.0	 0.0	 1	    1.01796	  -15.29398	 63.0	 1	    1.07937	    0.92063;
	292	 1	 1.0	 0.5	 0.0	 0.0	 1	    1.02998	  -22.92907	 63.0	 1	    1.06349	    0.93651;
	293	 1	 45.4	 2.3	 0.0	 0.0	 1	    1.03003	  -22.92583	 63.0	 1	    1.06349	    0.93651;
	294	 1	 0.0	 -0.9	 0.0	 0.0	 1	    1.00951	  -29.94005	 63.0	 1	    1.07937	    0.95238;
	295	 1	 23.4	 4.5	 0.0	 0.0	 1	    1.05710	  -23.91400	 225.0	 1	    1.08889	    0.88889;
	296	 1	 6.9	 0.3	 0.0	 0.0	 1	    1.03026	  -24.88833	 63.0	 1	    1.07937	    0.95238;
	297	 1	 2.0	 -0.5	 0.0	 0.0	 1	    0.99666	  -24.64187	 63.0	 1	    1.06349	    0.93651;
	298	 1	 13.9	 -0.0	 0.0	 0.0	 1	    1.02752	  -12.37722	 63.0	 1	    1.06349	    0.93651;
	299	 1	 0.0	 0.1	 0.0	 0.0	 1	    1.06824	  -20.99554	 90.0	 1	    1.11111	    0.95556;
	300	 1	 53.5	 16.6	 0.0	 0.0	 1	    1.07122	  -18.37691	 225.0	 1	    1.08889	    0.88889;
	301	 1	 3.0	 0.3	 0.0	 0.0	 1	    1.01722	  -10.99861	 63.0	 1	    1.06349	    0.96825;
	302	 1	 16.3	 3.5	 0.0	 0.0	 1	    1.01141	  -20.06770	 63.0	 1	    1.06349	    0.93651;
	303	 1	 42.3	 12.0	 0.0	 0.0	 1	    1.02001	  -22.54046	 63.0	 1	    1.07937	    0.92063;
	304	 1	 36.7	 -0.5	 0.0	 0.0	 1	    1.02758	  -20.58727	 63.0	 1	    1.06349	    0.96825;
	305	 2	 0.0	 0.0	 0.0	 0.0	 1	    1.04790	  -17.43301	 63.0	 1	    1.06349	    0.93651;
	306	 1	 14.5	 -1.1	 0.0	 0.0	 1	    1.02771	  -26.10898	 63.0	 1	    1.07937	    0.95238;
	307	 1	 21.4	 -2.4	 0.0	 0.0	 1	    1.01274	  -43.75647	 90.0	 1	    1.06667	    0.97778;
	308	 1	 0.6	 0.2	 0.0	 0.0	 1	    1.05607	  -11.93888	 63.0	 1	    1.07937	    0.92063;
	309	 1	 7.0	 2.5	 0.0	 0.0	 1	    1.05468	  -27.66701	 63.0	 1	    1.06349	    0.96825;
	310	 1	 13.0	 4.5	 0.0	 0.0	 1	    1.05483	  -27.69553	 63.0	 1	    1.06349	    0.96825;
	311	 1	 1.3	 -0.0	 0.0	 0.0	 1	    0.99784	  -27.71648	 90.0	 1	    1.06667	    0.97778;
	312	 1	 2.0	 -2.6	 0.0	 0.0	 1	    1.03101	  -17.17007	 90.0	 1	    1.07778	    0.92222;
	313	 1	 32.0	 2.4	 0.0	 0.0	 1	    1.03747	  -16.40889	 63.0	 1	    1.07937	    0.92063;
	314	 1	 0.0	 0.0	 0.0	 0.0	 1	    1.06956	  -12.55853	 225.0	 1	    1.08889	    1.00000;
	315	 1	 21.5	 -0.1	 0.0	 0.0	 1	    1.07007	  -28.66788	 90.0	 1	    1.07778	    0.97778;
	316	 1	 35.3	 2.4	 0.0	 0.0	 1	    1.04815	  -15.67275	 63.0	 1	    1.07937	    0.92063;
	317	 2	 0.0	 0.0	 0.0	 0.0	 1	    1.06618	   -9.17751	 63.0	 1	    1.07937	    0.92063;
	318	 1	 13.7	 4.8	 0.0	 0.0	 1	    1.02336	  -34.32417	 63.0	 1	    1.04762	    0.95238;
	319	 2	 0.0	 0.0	 0.0	 0.0	 1	    1.03497	  -16.03601	 63.0	 1	    1.07937	    0.92063;
	320	 1	 36.6	 2.7	 0.0	 0.0	 1	    1.05994	  -26.42947	 90.0	 1	    1.10000	    0.94444;
	321	 1	 0.0	 0.0	 0.0	 0.0	 1	    1.07684	  -13.17016	 63.0	 1	    1.07937	    0.92063;
	322	 1	 0.0	 0.0	 0.0	 0.0	 1	    1.05930	   -4.97321	 225.0	 1	    1.08889	    1.00000;
	323	 1	 0.0	 0.0	 0.0	 0.0	 1	    1.09859	   -4.92804	 380.0	 1	    1.10526	    1.05232;
	324	 1	 28.5	 5.3	 0.0	 0.0	 1	    1.04505	  -13.98486	 63.0	 1	    1.06349	    0.93651;
	325	 2	 18.0	 9.6	 0.0	 0.0	 1	    1.01217	  -21.91199	 63.0	 1	    1.06349	    0.93651;