%%%%%%%%%%%%%%%%%%%%%%%%%%%%%%%%%%%%%%%%%%%%%%%%%%%%%%%%%%%%%%%%%%%%%%%%%%%
%%%%                                                                  %%%%%
%%%%    IEEE PES Power Grid Library - Optimal Power Flow - v17.07     %%%%%
%%%%          (https://github.com/power-grid-lib/pglib-opf)           %%%%%
%%%%             Benchmark Group - Small Angle Difference             %%%%%
%%%%                         27 - June - 2017                         %%%%%
%%%%                                                                  %%%%%
%%%%%%%%%%%%%%%%%%%%%%%%%%%%%%%%%%%%%%%%%%%%%%%%%%%%%%%%%%%%%%%%%%%%%%%%%%%
function mpc = pglib_opf_case2848_rte__sad
mpc.version = '2';
mpc.baseMVA = 100.0;

%% bus data
%	bus_i	type	Pd	Qd	Gs	Bs	area	Vm	Va	baseKV	zone	Vmax	Vmin
mpc.bus = [
	1	 1	 20.6	 0.0	 0.0	 0.0	 1	    1.00903	   -4.97547	 63.0	 1	    1.06349	    0.93651;
	2	 1	 20.9	 17.2	 0.0	 0.0	 1	    1.06098	   -5.91121	 225.0	 1	    1.08889	    0.88889;
	3	 1	 0.0	 0.0	 0.0	 0.0	 1	    1.04784	    0.23832	 380.0	 1	    1.10263	    1.00000;
	4	 1	 0.0	 0.0	 0.0	 0.0	 1	    1.03274	   -7.80742	 63.0	 1	    1.07937	    0.92063;
	5	 1	 0.4	 0.1	 0.0	 0.0	 1	    0.90375	   -3.63496	 45.0	 1	    1.00000	    0.88889;
	6	 1	 -2.3	 -20.6	 0.0	 0.0	 1	    0.90488	   -3.65142	 45.0	 1	    1.00000	    0.88889;
	7	 1	 110.5	 -25.5	 0.0	 0.0	 1	    1.07220	   -4.72218	 225.0	 1	    1.08444	    1.00000;
	8	 1	 44.7	 1.5	 0.0	 0.0	 1	    1.03184	   -5.99029	 63.0	 1	    1.06349	    0.96825;
	9	 1	 0.0	 0.0	 0.0	 -21.0	 1	    0.99696	   -0.80673	 20.0	 1	    1.20000	    0.80000;
	2966	 1	 0.0	 0.0	 0.0	 -64.0	 1	    0.96291	   -4.10969	 20.0	 1	    1.20000	    0.80000;
	10	 1	 0.0	 0.0	 0.0	 0.0	 1	    1.01052	   -3.49908	 150.0	 1	    1.10667	    0.90000;
	11	 1	 31.7	 -8.7	 0.0	 0.0	 1	    1.01035	   -3.85126	 225.0	 1	    1.08889	    0.93333;
	2571	 1	 43.7	 9.9	 0.0	 0.0	 1	    1.00863	   -3.45904	 225.0	 1	    1.08889	    0.93333;
	12	 1	 0.0	 0.0	 0.0	 0.0	 1	    1.01697	   -0.84863	 380.0	 1	    1.10526	    1.00000;
	13	 1	 0.0	 0.0	 0.0	 0.0	 1	    1.06203	   -7.23430	 225.0	 1	    1.09067	    1.00000;
	14	 1	 -4.1	 3.7	 0.0	 0.0	 1	    0.98417	   -8.31007	 63.0	 1	    1.06349	    0.93651;
	15	 1	 9.0	 -3.3	 0.0	 0.0	 1	    1.00342	   -8.01455	 63.0	 1	    1.06349	    0.93651;
	16	 1	 120.0	 6.3	 0.0	 0.0	 1	    1.02677	   -5.79721	 225.0	 1	    1.08889	    0.93333;
	17	 1	 35.0	 6.9	 0.0	 0.0	 1	    1.07165	   -7.08717	 225.0	 1	    1.08889	    1.00000;
	18	 1	 45.0	 13.4	 0.0	 0.0	 1	    1.03362	   -4.63489	 225.0	 1	    1.08962	    1.00000;
	19	 2	 0.0	 0.0	 0.0	 0.0	 1	    1.04165	   -4.30616	 63.0	 1	    1.08661	    0.92063;
	20	 1	 77.3	 29.1	 0.0	 0.0	 1	    1.07160	   -7.09674	 225.0	 1	    1.08889	    1.00000;
	21	 1	 48.4	 4.0	 0.0	 0.0	 1	    1.07539	   -2.20499	 225.0	 1	    1.08889	    0.88889;
	22	 1	 4.6	 -11.4	 0.0	 0.0	 1	    1.07137	  -10.89949	 63.0	 1	    1.07249	    0.93651;
	23	 1	 33.3	 -5.7	 0.0	 0.0	 1	    0.99315	   -8.18897	 63.0	 1	    1.06349	    0.93651;
	24	 1	 0.0	 0.0	 0.0	 0.0	 1	    1.08889	   -2.15101	 225.0	 1	    1.08889	    1.00000;
	2573	 1	 0.0	 0.0	 0.0	 0.0	 1	    1.08889	   -2.15101	 225.0	 1	    1.08889	    1.00000;
	25	 1	 18.0	 5.6	 0.0	 0.0	 1	    1.07554	   -2.27701	 225.0	 1	    1.08889	    0.88889;
	26	 1	 1.0	 -8.0	 0.0	 0.0	 1	    1.07742	   -1.00256	 225.0	 1	    1.09649	    0.98667;
	27	 1	 22.0	 -5.6	 0.0	 0.0	 1	    1.02250	   -7.71858	 63.0	 1	    1.06349	    0.93651;
	28	 1	 -2.1	 -0.1	 0.0	 0.0	 1	    1.05617	   -6.36117	 225.0	 1	    1.08889	    1.00000;
	2574	 1	 39.1	 10.0	 0.0	 0.0	 1	    1.05613	   -6.36423	 225.0	 1	    1.08889	    1.00000;
	29	 1	 7.1	 -2.6	 0.0	 0.0	 1	    0.99040	   -8.48914	 63.0	 1	    1.06349	    0.93651;
	30	 1	 3.5	 -40.0	 0.0	 0.0	 1	    1.07228	   -5.18516	 225.0	 1	    1.08889	    1.00000;
	31	 1	 7.7	 -1.8	 0.0	 0.0	 1	    1.01813	   -5.53158	 63.0	 1	    1.07211	    0.93651;
	32	 1	 12.1	 2.1	 0.0	 0.0	 1	    0.96701	   -8.89361	 63.0	 1	    1.06349	    0.93651;
	33	 1	 2.4	 -0.4	 0.0	 0.0	 1	    0.90316	   -4.00316	 45.0	 1	    1.00000	    0.88889;
	34	 1	 -0.0	 0.0	 0.0	 0.0	 1	    0.90382	   -3.63008	 45.0	 1	    1.00000	    0.88889;
	35	 1	 26.0	 0.1	 0.0	 0.0	 1	    1.02327	   -9.87554	 63.0	 1	    1.06349	    0.96825;
	36	 1	 0.7	 -4.1	 0.0	 0.0	 1	    0.94518	   -6.63783	 45.0	 1	    1.00000	    0.88889;
	37	 1	 9.3	 -5.3	 0.0	 0.0	 1	    1.02179	   -6.53961	 63.0	 1	    1.06349	    0.93651;
	39	 1	 78.4	 -4.8	 0.0	 0.0	 1	    1.06541	   -4.33837	 225.0	 1	    1.08934	    0.98667;
	40	 1	 25.1	 -3.3	 0.0	 0.0	 1	    1.07847	   -4.14783	 225.0	 1	    1.08889	    0.88889;
	41	 1	 80.4	 7.4	 0.0	 0.0	 1	    1.08212	  -14.56861	 225.0	 1	    1.08444	    1.00000;
	42	 1	 37.8	 2.9	 0.0	 0.0	 1	    1.00234	   -4.61775	 63.0	 1	    1.06370	    0.93651;
	43	 1	 0.0	 0.0	 0.0	 0.0	 1	    1.01186	   -3.16206	 225.0	 1	    1.08889	    0.93333;
	44	 1	 29.0	 -10.0	 0.0	 0.0	 1	    1.02927	   -8.89396	 63.0	 1	    1.06349	    0.96825;
	45	 1	 97.4	 -3.0	 0.0	 0.0	 1	    1.05343	   -5.91788	 225.0	 1	    1.08889	    1.00000;
	46	 1	 0.0	 0.0	 0.0	 0.0	 1	    1.04774	    0.27683	 380.0	 1	    1.10526	    1.00000;
	2575	 1	 0.0	 0.0	 0.0	 0.0	 1	    1.04771	    0.27668	 380.0	 1	    1.10526	    1.00000;
	47	 1	 21.3	 -2.6	 0.0	 0.0	 1	    1.00692	   -4.81642	 63.0	 1	    1.06606	    0.93651;
	48	 1	 -0.3	 0.8	 0.0	 0.0	 1	    1.02461	   -5.70965	 63.0	 1	    1.06735	    0.93651;
	49	 1	 11.6	 3.2	 0.0	 0.0	 1	    1.01207	   -3.67768	 63.0	 1	    1.06349	    0.96825;
	2576	 1	 9.3	 4.7	 0.0	 0.0	 1	    1.01750	   -4.04832	 63.0	 1	    1.06349	    0.96825;
	50	 1	 0.0	 0.0	 0.0	 0.0	 1	    1.05242	   -2.64630	 225.0	 1	    1.08444	    1.00000;
	51	 1	 66.6	 0.0	 0.0	 0.0	 1	    1.06773	   -3.91910	 225.0	 1	    1.08444	    1.00000;
	52	 1	 0.0	 0.0	 0.0	 0.0	 1	    1.07188	   -6.96440	 225.0	 1	    1.08889	    1.00000;
	2942	 1	 53.9	 11.2	 0.0	 0.0	 1	    1.05857	   -7.53849	 225.0	 1	    1.08889	    1.00000;
	53	 2	 7.9	 -4.7	 0.0	 0.0	 1	    1.02286	   -4.06370	 63.0	 1	    1.06349	    0.96825;
	54	 1	 0.0	 0.0	 0.0	 0.0	 1	    1.04051	   -4.32548	 150.0	 1	    1.08000	    0.96667;
	55	 1	 40.5	 8.5	 0.0	 0.0	 1	    1.07861	  -19.62767	 225.0	 1	    1.09459	    1.00000;
	56	 1	 0.0	 0.0	 0.0	 0.0	 1	    1.08874	  -17.71285	 380.0	 1	    1.10526	    1.00000;
	57	 1	 80.2	 -7.7	 0.0	 0.0	 1	    1.04057	   -6.27563	 225.0	 1	    1.08889	    0.98667;
	58	 1	 0.0	 0.0	 0.0	 -64.0	 1	    1.07080	   -2.34659	 20.0	 1	    1.20000	    0.80000;
	59	 1	 35.3	 -9.2	 0.0	 0.0	 1	    1.07534	   -2.16869	 225.0	 1	    1.08889	    0.96889;
	60	 1	 58.9	 2.6	 0.0	 0.0	 1	    1.07881	   -1.16418	 380.0	 1	    1.10526	    1.00000;
	61	 1	 5.5	 1.7	 0.0	 0.0	 1	    1.00428	   -5.87451	 63.0	 1	    1.06349	    0.93651;
	62	 1	 0.6	 0.7	 0.0	 0.0	 1	    1.01196	   -7.45275	 63.0	 1	    1.06349	    0.96825;
	63	 1	 28.6	 4.1	 0.0	 0.0	 1	    1.01217	   -7.45020	 63.0	 1	    1.06349	    0.96825;
	2577	 1	 0.0	 0.0	 0.0	 0.0	 1	    1.01216	   -8.71205	 63.0	 1	    1.06349	    0.96825;
	64	 1	 39.6	 9.4	 0.0	 0.0	 1	    1.02859	   -3.20843	 225.0	 1	    1.08889	    0.93333;
	65	 1	 0.0	 0.0	 0.0	 0.0	 1	    1.01213	   -8.71653	 63.0	 1	    1.06349	    0.96825;
	66	 1	 12.5	 -6.5	 0.0	 0.0	 1	    0.89196	   -3.83020	 45.0	 1	    1.00000	    0.88889;
	2578	 2	 0.0	 0.0	 0.0	 0.0	 1	    0.94863	   -2.31207	 45.0	 1	    1.00000	    0.88889;
	67	 1	 0.4	 3.2	 0.0	 0.0	 1	    1.08045	   -3.85237	 225.0	 1	    1.08889	    0.88889;
	2579	 1	 42.5	 7.2	 0.0	 0.0	 1	    1.08006	   -3.93690	 225.0	 1	    1.08889	    0.88889;
	68	 1	 4.2	 -2.2	 0.0	 0.0	 1	    1.07541	  -14.60836	 20.0	 1	    1.20000	    0.80000;
	69	 1	 139.3	 4.7	 0.0	 0.0	 1	    1.07540	  -14.60653	 225.0	 1	    1.08685	    1.00000;
	70	 1	 83.7	 -8.3	 0.0	 0.0	 1	    1.07456	   -6.18810	 225.0	 1	    1.08889	    1.00000;
	71	 2	 0.0	 0.0	 0.0	 0.0	 1	    1.10127	   -4.03125	 150.0	 1	    1.10885	    0.90000;
	72	 1	 0.0	 0.0	 0.0	 0.0	 1	    1.04191	   -4.83469	 225.0	 1	    1.08889	    1.00000;
	2580	 1	 0.0	 0.0	 0.0	 0.0	 1	    1.04191	   -4.83469	 225.0	 1	    1.08889	    1.00000;
	74	 1	 0.0	 0.0	 0.0	 -80.0	 1	    1.04191	   -4.83468	 225.0	 1	    1.08889	    1.00000;
	75	 1	 15.2	 5.4	 0.0	 0.0	 1	    1.00398	   -4.18631	 63.0	 1	    1.06349	    0.93651;
	76	 2	 0.0	 0.0	 0.0	 0.0	 1	    0.91728	   -2.85712	 45.0	 1	    1.00000	    0.88889;
	77	 1	 5.7	 -1.3	 0.0	 0.0	 1	    1.04607	   -4.48527	 63.0	 1	    1.08481	    0.92063;
	78	 1	 7.8	 5.8	 0.0	 0.0	 1	    1.05252	   -6.23458	 225.0	 1	    1.08889	    1.00000;
	79	 1	 14.0	 -4.6	 0.0	 0.0	 1	    1.04868	  -17.51682	 63.0	 1	    1.07937	    0.92063;
	80	 1	 7.1	 -2.3	 0.0	 0.0	 1	    1.02330	   -7.04488	 63.0	 1	    1.08744	    0.92063;
	81	 1	 0.0	 0.0	 0.0	 0.0	 1	    1.05994	   -6.93650	 225.0	 1	    1.08889	    1.00000;
	82	 1	 59.6	 24.0	 0.0	 0.0	 1	    1.07496	   -4.26427	 225.0	 1	    1.08889	    0.88889;
	83	 1	 27.8	 -7.5	 0.0	 0.0	 1	    1.03899	  -12.10319	 63.0	 1	    1.06349	    0.96740;
	84	 1	 61.1	 -4.5	 0.0	 0.0	 1	    1.06951	   -2.63399	 225.0	 1	    1.08889	    0.96889;
	85	 1	 0.0	 0.0	 0.0	 0.0	 1	    1.06788	   -0.86536	 380.0	 1	    1.10526	    1.00000;
	86	 1	 31.8	 1.0	 0.0	 0.0	 1	    1.04037	   -9.97587	 63.0	 1	    1.06349	    0.96825;
	87	 1	 22.8	 -0.9	 0.0	 0.0	 1	    0.97220	   -5.81463	 63.0	 1	    1.06349	    0.96825;
	88	 1	 2.1	 0.8	 0.0	 0.0	 1	    1.02655	   -5.22937	 63.0	 1	    1.06349	    0.96825;
	89	 1	 30.5	 6.3	 0.0	 0.0	 1	    1.01515	   -3.71206	 63.0	 1	    1.06349	    0.96825;
	2581	 1	 32.0	 12.1	 0.0	 0.0	 1	    1.01512	   -3.64247	 63.0	 1	    1.06349	    0.96825;
	90	 1	 0.0	 0.0	 0.0	 0.0	 1	    1.06034	   -3.56593	 225.0	 1	    1.08444	    1.00000;
	2582	 1	 0.0	 0.0	 0.0	 0.0	 1	    1.06046	   -3.56552	 225.0	 1	    1.08444	    1.00000;
	91	 1	 89.3	 -15.7	 0.0	 0.0	 1	    1.07872	   -9.23564	 225.0	 1	    1.08889	    1.00000;
	92	 1	 6.4	 -11.6	 0.0	 0.0	 1	    1.05156	   -3.06821	 225.0	 1	    1.09041	    0.93333;
	93	 2	 0.0	 0.0	 0.0	 0.0	 1	    1.10053	   -4.13448	 150.0	 1	    1.10907	    0.90000;
	94	 1	 37.7	 57.2	 0.0	 0.0	 1	    1.06603	   -1.55372	 225.0	 1	    1.08444	    1.00000;
	2583	 1	 33.4	 -0.5	 0.0	 0.0	 1	    1.06695	   -1.55925	 225.0	 1	    1.08444	    1.00000;
	95	 1	 0.0	 0.0	 0.0	 0.0	 1	    1.06709	   -1.74893	 225.0	 1	    1.08889	    0.97778;
	96	 1	 9.0	 0.8	 0.0	 0.0	 1	    1.07624	   -1.97279	 225.0	 1	    1.08889	    0.88889;
	97	 1	 35.8	 4.5	 0.0	 0.0	 1	    1.02849	   -8.22722	 63.0	 1	    1.06349	    0.96825;
	98	 1	 16.5	 -8.7	 0.0	 0.0	 1	    1.00381	   -3.17609	 225.0	 1	    1.08889	    0.93333;
	99	 1	 28.6	 5.0	 0.0	 0.0	 1	    1.06197	   -7.28871	 225.0	 1	    1.08889	    1.00000;
	2584	 1	 14.5	 3.6	 0.0	 0.0	 1	    1.03296	   -4.79339	 225.0	 1	    1.08889	    1.00000;
	100	 1	 7.3	 -5.1	 0.0	 0.0	 1	    1.06070	   -7.43931	 225.0	 1	    1.08889	    1.00000;
	101	 1	 6.4	 2.5	 0.0	 0.0	 1	    1.05350	   -4.41237	 225.0	 1	    1.08889	    0.98667;
	102	 1	 0.0	 0.0	 0.0	 0.0	 1	    1.08039	   -3.73885	 225.0	 1	    1.08889	    0.88889;
	2585	 1	 0.0	 0.0	 0.0	 0.0	 1	    1.07976	   -3.83111	 225.0	 1	    1.08889	    0.88889;
	103	 1	 0.0	 0.0	 0.0	 0.0	 1	    1.08293	   -2.42410	 380.0	 1	    1.10526	    1.00000;
	104	 1	 45.6	 7.0	 0.0	 0.0	 1	    1.05656	   -6.52622	 225.0	 1	    1.08889	    1.00000;
	2586	 1	 19.1	 5.8	 0.0	 -80.0	 1	    1.05734	   -5.18376	 225.0	 1	    1.08889	    1.00000;
	105	 1	 10.1	 -0.9	 0.0	 0.0	 1	    1.01545	   -8.03949	 63.0	 1	    1.07937	    0.92063;
	106	 1	 0.0	 0.0	 0.0	 0.0	 1	    1.05045	   -2.79498	 225.0	 1	    1.08889	    0.97778;
	2587	 1	 0.0	 0.0	 0.0	 0.0	 1	    1.05046	   -2.79414	 225.0	 1	    1.08889	    0.97778;
	107	 1	 8.4	 3.5	 0.0	 0.0	 1	    1.03207	   -5.78755	 63.0	 1	    1.06349	    0.96825;
	108	 1	 39.7	 -6.4	 0.0	 0.0	 1	    1.05102	   -3.24888	 225.0	 1	    1.08444	    1.00000;
	109	 1	 0.0	 0.0	 0.0	 0.0	 1	    1.08128	   -6.71595	 225.0	 1	    1.08444	    1.00000;
	110	 1	 0.0	 0.0	 0.0	 0.0	 1	    1.07823	   -2.24820	 380.0	 1	    1.10263	    1.00000;
	111	 1	 62.2	 -16.1	 0.0	 0.0	 1	    1.08119	   -6.76091	 225.0	 1	    1.08444	    1.00000;
	112	 1	 2.2	 -1.0	 0.0	 0.0	 1	    1.03436	   -4.52304	 225.0	 1	    1.09035	    1.00000;
	2588	 1	 12.3	 -2.0	 0.0	 0.0	 1	    1.03433	   -4.52930	 225.0	 1	    1.09035	    1.00000;
	113	 1	 5.0	 -3.8	 0.0	 0.0	 1	    1.08289	   -1.99343	 225.0	 1	    1.08889	    0.88889;
	114	 1	 30.0	 0.0	 0.0	 0.0	 1	    0.99969	   -6.72179	 63.0	 1	    1.06349	    0.93651;
	115	 1	 11.7	 1.8	 0.0	 0.0	 1	    1.07812	   -3.26300	 225.0	 1	    1.08889	    0.88889;
	116	 1	 51.9	 15.9	 0.0	 0.0	 1	    1.07254	   -2.87696	 225.0	 1	    1.08889	    0.88889;
	117	 1	 2.6	 0.2	 0.0	 0.0	 1	    1.00208	   -5.38704	 63.0	 1	    1.06349	    0.96825;
	118	 1	 38.0	 3.1	 0.0	 0.0	 1	    1.03487	  -19.44875	 63.0	 1	    1.07937	    0.92063;
	119	 1	 24.0	 -7.3	 0.0	 0.0	 1	    1.02878	  -11.84508	 63.0	 1	    1.06349	    0.96825;
	120	 2	 0.0	 0.0	 0.0	 0.0	 1	    1.02138	   -5.41832	 63.0	 1	    1.06863	    0.93651;
	121	 1	 8.0	 2.5	 0.0	 0.0	 1	    1.05542	  -13.22305	 63.0	 1	    1.06349	    0.96825;
	2589	 1	 9.9	 3.5	 0.0	 0.0	 1	    1.05577	  -13.23003	 63.0	 1	    1.06349	    0.96825;
	122	 1	 77.1	 -3.9	 0.0	 0.0	 1	    1.07858	   -7.40868	 225.0	 1	    1.08889	    1.00000;
	123	 1	 21.2	 4.4	 0.0	 0.0	 1	    1.05382	   -9.98922	 63.0	 1	    1.07937	    0.92063;
	124	 2	 -0.0	 -4.6	 0.0	 0.0	 1	    1.05200	   -4.66480	 63.0	 1	    1.08203	    0.92063;
	125	 1	 0.0	 0.0	 0.0	 0.0	 1	    1.06335	  -13.10213	 63.0	 1	    1.07937	    0.92063;
	126	 1	 0.0	 0.0	 0.0	 0.0	 1	    1.02805	   -9.54458	 225.0	 1	    1.08889	    1.00000;
	127	 1	 0.0	 0.0	 0.0	 0.0	 1	    1.06607	   -9.58558	 380.0	 1	    1.10526	    1.00000;
	128	 1	 17.1	 1.5	 0.0	 0.0	 1	    1.00914	   -5.05612	 63.0	 1	    1.06349	    0.93651;
	129	 2	 18.2	 12.2	 0.0	 0.0	 1	    1.00514	   -6.34124	 63.0	 1	    1.06349	    0.93651;
	130	 1	 -13.2	 16.1	 0.0	 0.0	 1	    1.04794	   -9.12150	 63.0	 1	    1.07937	    0.92063;
	131	 1	 0.0	 0.0	 0.0	 0.0	 1	    1.05286	   -7.78394	 225.0	 1	    1.08889	    1.00000;
	132	 1	 81.2	 18.3	 0.0	 0.0	 1	    1.06654	   -7.71563	 225.0	 1	    1.08889	    1.00000;
	133	 2	 9.6	 3.3	 0.0	 0.0	 1	    1.05813	  -12.23107	 63.0	 1	    1.06538	    0.96825;
	134	 2	 0.0	 0.0	 0.0	 0.0	 1	    1.04857	   -7.31469	 150.0	 1	    1.08000	    0.96667;
	135	 2	 -8.9	 -4.4	 0.0	 0.0	 1	    1.04104	   -6.33995	 63.0	 1	    1.07937	    0.92063;
	136	 1	 -10.6	 -2.1	 0.0	 0.0	 1	    1.04188	   -1.95129	 225.0	 1	    1.08889	    0.98667;
	137	 1	 14.1	 -3.7	 0.0	 0.0	 1	    0.99754	   -8.18487	 63.0	 1	    1.06349	    0.96825;
	138	 1	 11.3	 -2.7	 0.0	 0.0	 1	    1.02831	   -2.15885	 225.0	 1	    1.08444	    1.00000;
	139	 1	 9.4	 -2.2	 0.0	 0.0	 1	    1.03328	  -15.61844	 63.0	 1	    1.06349	    0.96825;
	140	 1	 0.0	 0.0	 0.0	 0.0	 1	    1.08106	    0.82555	 380.0	 1	    1.10526	    1.00000;
	2590	 1	 0.0	 0.0	 0.0	 0.0	 1	    1.08103	    0.75267	 380.0	 1	    1.10526	    1.00000;
	141	 1	 11.1	 4.5	 0.0	 0.0	 1	    1.08260	   -7.36076	 225.0	 1	    1.08889	    1.00000;
	142	 1	 7.2	 5.2	 0.0	 0.0	 1	    1.08061	   -6.61276	 225.0	 1	    1.08889	    1.00000;
	143	 1	 20.9	 -1.3	 0.0	 0.0	 1	    1.04154	   -8.59718	 63.0	 1	    1.06349	    0.96825;
	144	 1	 33.4	 6.5	 0.0	 0.0	 1	    1.08876	   -5.98605	 150.0	 1	    1.10000	    0.90000;
	145	 1	 61.8	 -3.3	 0.0	 0.0	 1	    1.06853	   -9.94856	 225.0	 1	    1.08925	    1.00000;
	146	 2	 0.0	 -0.0	 0.0	 0.0	 1	    1.05609	   -6.37009	 225.0	 1	    1.08889	    1.00000;
	147	 1	 0.0	 0.0	 0.0	 0.0	 1	    1.00974	   -3.95213	 225.0	 1	    1.08889	    0.93333;
	148	 1	 0.0	 0.0	 0.0	 0.0	 1	    1.01649	   -0.78207	 380.0	 1	    1.10526	    1.00000;
	2591	 1	 0.0	 0.0	 0.0	 0.0	 1	    1.01669	   -0.80776	 380.0	 1	    1.10526	    1.00000;
	149	 1	 0.0	 0.0	 0.0	 0.0	 1	    1.07193	   -7.06936	 225.0	 1	    1.08889	    1.00000;
	2592	 1	 61.8	 10.2	 0.0	 0.0	 1	    1.05781	   -7.70675	 225.0	 1	    1.08889	    1.00000;
	150	 1	 0.0	 0.0	 0.0	 0.0	 1	    1.03743	   -2.87144	 225.0	 1	    1.08889	    0.98667;
	151	 1	 9.8	 4.5	 0.0	 0.0	 1	    1.07176	   -7.07887	 225.0	 1	    1.08889	    1.00000;
	152	 1	 0.0	 0.0	 0.0	 0.0	 1	    1.02647	   -2.50644	 20.0	 1	    1.20000	    0.80000;
	153	 1	 88.2	 -7.1	 0.0	 0.0	 1	    1.02349	   -2.27380	 225.0	 1	    1.08889	    0.93333;
	154	 1	 0.0	 0.0	 0.0	 0.0	 1	    1.04494	   -1.31210	 380.0	 1	    1.10526	    1.00000;
	155	 1	 23.8	 -12.3	 0.0	 0.0	 1	    1.07817	   -5.98249	 225.0	 1	    1.08889	    1.00000;
	156	 1	 18.2	 -0.6	 0.0	 0.0	 1	    1.03692	   -6.66194	 63.0	 1	    1.06503	    0.93651;
	157	 1	 0.4	 0.2	 0.0	 0.0	 1	    1.03152	   -6.14240	 63.0	 1	    1.06349	    0.96825;
	158	 1	 18.7	 -2.5	 0.0	 0.0	 1	    1.03632	   -9.55863	 63.0	 1	    1.07937	    0.92063;
	159	 1	 19.2	 -1.0	 0.0	 0.0	 1	    1.04017	  -10.60360	 63.0	 1	    1.06349	    0.96825;
	160	 1	 4.0	 0.2	 0.0	 0.0	 1	    1.02096	   -7.66358	 63.0	 1	    1.06349	    0.93651;
	161	 2	 0.0	 0.0	 0.0	 0.0	 1	    1.03462	   -5.24054	 63.0	 1	    1.15000	    0.80000;
	162	 1	 2.8	 3.9	 0.0	 0.0	 1	    1.07485	   -5.64372	 225.0	 1	    1.09053	    1.00000;
	163	 1	 0.0	 0.0	 0.0	 0.0	 1	    1.05366	  -18.41554	 63.0	 1	    1.06349	    0.96825;
	164	 1	 68.7	 -27.8	 0.0	 0.0	 1	    1.09537	  -12.34693	 225.0	 1	    1.09791	    1.00000;
	165	 1	 70.9	 -7.8	 0.0	 0.0	 1	    1.06023	   -2.38896	 225.0	 1	    1.08889	    0.98667;
	166	 1	 35.7	 1.2	 0.0	 0.0	 1	    1.03256	   -5.35876	 63.0	 1	    1.06349	    0.96825;
	167	 1	 66.9	 15.7	 0.0	 0.0	 1	    1.06203	   -7.22925	 225.0	 1	    1.09067	    1.00000;
	168	 1	 10.2	 -5.9	 0.0	 0.0	 1	    1.02119	   -6.88375	 63.0	 1	    1.06349	    0.93651;
	169	 1	 22.5	 -8.3	 0.0	 0.0	 1	    1.00528	   -7.83746	 63.0	 1	    1.06349	    0.96825;
	170	 1	 3.1	 1.2	 0.0	 0.0	 1	    1.00310	   -6.45652	 63.0	 1	    1.06822	    0.93651;
	171	 1	 103.9	 36.4	 0.0	 0.0	 1	    1.07465	   -4.46292	 225.0	 1	    1.08889	    0.92444;
	172	 2	 -0.0	 0.0	 0.0	 0.0	 1	    0.98331	   -4.20471	 63.0	 1	    1.06349	    0.96825;
	173	 1	 46.9	 -16.3	 0.0	 0.0	 1	    1.06503	    0.08750	 225.0	 1	    1.09616	    0.98667;
	174	 1	 0.0	 0.0	 0.0	 0.0	 1	    1.06777	    0.49549	 380.0	 1	    1.10526	    1.00000;
	175	 1	 83.4	 -19.9	 0.0	 0.0	 1	    1.08444	   -9.30466	 225.0	 1	    1.08444	    1.00000;
	176	 1	 0.0	 0.0	 0.0	 -64.0	 1	    1.02880	  -13.78696	 20.0	 1	    1.20000	    0.80000;
	177	 1	 0.0	 0.0	 0.0	 0.0	 1	    0.99304	  -14.43869	 63.0	 1	    1.06349	    0.96086;
	178	 1	 0.0	 0.0	 0.0	 0.0	 1	    1.08030	  -13.54421	 225.0	 1	    1.08444	    1.00000;
	179	 1	 0.0	 0.0	 0.0	 0.0	 1	    1.07650	  -11.45417	 380.0	 1	    1.10263	    1.00000;
	180	 1	 -0.3	 -5.1	 0.0	 0.0	 1	    1.02415	   -2.28056	 225.0	 1	    1.08889	    0.93333;
	181	 1	 -0.2	 -8.9	 0.0	 0.0	 1	    0.91601	   -2.88524	 45.0	 1	    1.01652	    0.88889;
	182	 1	 0.0	 0.0	 0.0	 0.0	 1	    1.00464	   -5.84121	 63.0	 1	    1.06349	    0.93651;
	183	 1	 0.0	 0.0	 0.0	 0.0	 1	    1.01194	   -3.32874	 225.0	 1	    1.08889	    0.93333;
	184	 2	 0.0	 0.0	 0.0	 0.0	 1	    1.04594	   -1.89986	 225.0	 1	    1.08889	    0.97778;
	185	 1	 12.8	 -5.2	 0.0	 0.0	 1	    1.01137	   -7.72596	 63.0	 1	    1.06349	    0.93651;
	186	 1	 -3.5	 -3.5	 0.0	 0.0	 1	    1.08668	   -0.06865	 225.0	 1	    1.09862	    1.00000;
	187	 1	 0.0	 0.0	 0.0	 0.0	 1	    1.08198	   -0.09537	 380.0	 1	    1.10526	    1.00000;
	2593	 1	 0.0	 0.0	 0.0	 0.0	 1	    1.08202	   -0.08351	 380.0	 1	    1.10526	    1.00000;
	2594	 1	 0.0	 0.0	 0.0	 0.0	 1	    1.08203	   -0.06905	 380.0	 1	    1.10526	    1.00000;
	2595	 1	 0.0	 0.0	 0.0	 0.0	 1	    1.08204	   -0.07811	 380.0	 1	    1.10526	    1.00000;
	188	 1	 0.0	 0.0	 0.0	 0.0	 1	    1.06505	    0.08858	 225.0	 1	    1.09683	    0.98667;
	2596	 1	 0.0	 0.0	 0.0	 0.0	 1	    1.06423	    0.16998	 225.0	 1	    1.09683	    0.98667;
	189	 1	 0.0	 0.0	 0.0	 0.0	 1	    1.06675	    0.56876	 380.0	 1	    1.10526	    1.00000;
	190	 1	 8.4	 -10.3	 0.0	 0.0	 1	    1.07910	   -2.33656	 225.0	 1	    1.08889	    0.96889;
	191	 1	 34.1	 -3.5	 0.0	 0.0	 1	    1.03156	  -18.74865	 63.0	 1	    1.06349	    0.96825;
	192	 1	 29.2	 4.5	 0.0	 0.0	 1	    1.08202	  -14.52143	 225.0	 1	    1.08444	    1.00000;
	193	 1	 11.4	 4.2	 0.0	 0.0	 1	    1.06343	    0.31567	 380.0	 1	    1.10526	    1.00000;
	194	 1	 0.0	 0.0	 0.0	 0.0	 1	    1.01531	   -6.42351	 63.0	 1	    1.06349	    0.93651;
	2597	 1	 0.0	 0.0	 0.0	 0.0	 1	    1.00845	   -6.20256	 63.0	 1	    1.06349	    0.93651;
	195	 1	 0.0	 0.0	 0.0	 0.0	 1	    1.02997	   -3.56010	 225.0	 1	    1.08889	    0.93333;
	196	 1	 0.0	 0.0	 0.0	 0.0	 1	    1.02377	   -0.84072	 380.0	 1	    1.10526	    1.00000;
	197	 1	 3.7	 13.7	 0.0	 0.0	 1	    1.00280	   -4.22727	 63.0	 1	    1.06349	    0.96825;
	198	 1	 0.0	 0.0	 0.0	 0.0	 1	    1.02510	   -1.83646	 225.0	 1	    1.08444	    1.00000;
	199	 1	 152.4	 6.2	 0.0	 0.0	 1	    1.05758	   -4.79413	 225.0	 1	    1.08444	    1.00000;
	200	 1	 29.9	 3.0	 0.0	 0.0	 1	    1.03249	   -3.95160	 225.0	 1	    1.08889	    0.93333;
	2598	 1	 35.0	 3.5	 0.0	 0.0	 1	    1.03247	   -3.95730	 225.0	 1	    1.08889	    0.93333;
	201	 1	 24.1	 -16.4	 0.0	 0.0	 1	    1.07489	   -5.64279	 225.0	 1	    1.09027	    1.00000;
	202	 1	 0.0	 0.0	 0.0	 0.0	 1	    1.04229	   -2.55351	 225.0	 1	    1.09529	    1.00000;
	2599	 1	 0.0	 0.0	 0.0	 0.0	 1	    1.04228	   -2.55349	 225.0	 1	    1.09529	    1.00000;
	203	 1	 36.8	 5.3	 0.0	 0.0	 1	    1.07836	   -7.12388	 225.0	 1	    1.08889	    1.00000;
	204	 1	 20.4	 -4.2	 0.0	 0.0	 1	    1.08377	   -4.55086	 225.0	 1	    1.08889	    1.00000;
	205	 1	 0.0	 0.0	 0.0	 0.0	 1	    0.97379	   -5.53565	 63.0	 1	    1.06349	    0.96825;
	206	 1	 0.0	 0.0	 0.0	 0.0	 1	    1.01894	   -2.80991	 225.0	 1	    1.08444	    1.00000;
	207	 1	 6.2	 2.7	 0.0	 0.0	 1	    1.02616	  -10.50846	 63.0	 1	    1.06349	    0.96825;
	208	 1	 9.6	 1.0	 0.0	 0.0	 1	    1.05720	  -14.21791	 63.0	 1	    1.07937	    0.92063;
	209	 1	 25.7	 -12.7	 0.0	 0.0	 1	    1.02314	   -7.66777	 63.0	 1	    1.06349	    0.93651;
	210	 1	 0.0	 0.0	 0.0	 0.0	 1	    1.04868	  -17.51682	 63.0	 1	    1.07937	    0.92063;
	211	 1	 26.5	 -2.3	 0.0	 0.0	 1	    1.07940	   -7.89121	 225.0	 1	    1.08889	    1.00000;
	212	 1	 0.0	 0.0	 0.0	 0.0	 1	    1.06588	   -7.98887	 225.0	 1	    1.08444	    1.00000;
	213	 1	 0.0	 0.0	 0.0	 0.0	 1	    1.06587	   -7.99502	 225.0	 1	    1.08444	    1.00000;
	2600	 1	 0.0	 0.0	 0.0	 0.0	 1	    1.06383	   -3.05736	 225.0	 1	    1.08444	    1.00000;
	214	 1	 0.0	 0.0	 0.0	 0.0	 1	    1.05968	   -2.34507	 380.0	 1	    1.10263	    1.00000;
	215	 1	 1.5	 -0.0	 0.0	 0.0	 1	    1.00217	   -5.13012	 63.0	 1	    1.06418	    0.93651;
	216	 1	 101.1	 -8.8	 0.0	 0.0	 1	    1.07313	   -2.79961	 225.0	 1	    1.08889	    0.88889;
	217	 1	 0.0	 0.0	 0.0	 0.0	 1	    1.08667	   -0.06875	 225.0	 1	    1.09861	    1.00000;
	218	 1	 0.0	 0.0	 0.0	 0.0	 1	    1.08199	   -0.14101	 380.0	 1	    1.10526	    1.00000;
	219	 1	 17.3	 3.3	 0.0	 0.0	 1	    1.04919	   -4.81985	 225.0	 1	    1.08889	    0.98667;
	220	 2	 0.0	 0.0	 0.0	 0.0	 1	    1.04201	  -12.71499	 63.0	 1	    1.06349	    0.96825;
	221	 1	 21.6	 -6.3	 0.0	 0.0	 1	    1.02899	   -7.33643	 63.0	 1	    1.07937	    0.92063;
	222	 1	 0.0	 0.0	 0.0	 0.0	 1	    1.06276	   -6.85862	 225.0	 1	    1.08889	    1.00000;
	223	 1	 0.0	 0.0	 0.0	 0.0	 1	    1.07787	  -12.85409	 225.0	 1	    1.08444	    1.00000;
	2601	 1	 0.0	 0.0	 0.0	 0.0	 1	    1.07786	  -12.85390	 225.0	 1	    1.08444	    1.00000;
	2602	 1	 0.0	 0.0	 0.0	 0.0	 1	    1.07786	  -12.85390	 225.0	 1	    1.08444	    1.00000;
	224	 1	 60.6	 -5.7	 0.0	 0.0	 1	    1.07786	  -12.85387	 225.0	 1	    1.08444	    1.00000;
	225	 2	 0.0	 0.0	 0.0	 0.0	 1	    1.00210	    0.60788	 20.0	 1	    1.20000	    0.80000;
	226	 1	 0.0	 0.0	 0.0	 0.0	 1	    1.00931	   -2.69489	 225.0	 1	    1.08889	    0.93333;
	227	 1	 6.2	 7.3	 0.0	 0.0	 1	    1.01077	   -3.59136	 225.0	 1	    1.08889	    0.98667;
	228	 1	 0.0	 0.0	 0.0	 0.0	 1	    1.03423	   -2.88451	 20.0	 1	    1.20000	    0.80000;
	229	 1	 0.0	 0.0	 0.0	 0.0	 1	    1.03752	   -2.60441	 225.0	 1	    1.09040	    1.00000;
	230	 1	 0.0	 0.0	 0.0	 0.0	 1	    1.04416	   -1.23487	 380.0	 1	    1.10526	    1.00000;
	231	 2	 0.0	 0.0	 0.0	 0.0	 1	    1.00648	   -5.24836	 225.0	 1	    1.08889	    0.93333;
	232	 1	 11.4	 0.6	 0.0	 0.0	 1	    0.98634	   -5.58967	 63.0	 1	    1.06349	    0.96825;
	2603	 1	 9.0	 0.1	 0.0	 0.0	 1	    1.01872	   -4.60018	 63.0	 1	    1.06349	    0.96825;
	233	 1	 0.0	 0.0	 0.0	 0.0	 1	    1.03726	   -4.52175	 150.0	 1	    1.08000	    0.96667;
	234	 1	 1.2	 -0.9	 0.0	 0.0	 1	    1.05689	   -6.23994	 225.0	 1	    1.08889	    1.00000;
	2604	 1	 37.3	 -0.1	 0.0	 0.0	 1	    1.05665	   -6.29018	 225.0	 1	    1.08889	    1.00000;
	235	 2	 0.0	 0.0	 0.0	 0.0	 1	    1.00331	   -4.47793	 63.0	 1	    1.06349	    0.93651;
	236	 2	 26.3	 1.1	 0.0	 0.0	 1	    1.03490	   -4.62063	 63.0	 1	    1.06349	    0.96825;
	237	 1	 13.4	 -0.3	 0.0	 0.0	 1	    1.02438	   -8.73829	 63.0	 1	    1.06349	    0.93651;
	238	 1	 34.2	 0.7	 0.0	 0.0	 1	    1.07248	   -2.42904	 225.0	 1	    1.08889	    0.88889;
	240	 2	 0.0	 0.0	 0.0	 0.0	 1	    1.03415	   -0.68798	 380.0	 1	    1.10694	    1.00000;
	241	 1	 9.9	 3.2	 0.0	 0.0	 1	    1.00251	   -4.17350	 63.0	 1	    1.06721	    0.93651;
	242	 1	 29.3	 2.0	 0.0	 0.0	 1	    1.02961	   -8.14932	 63.0	 1	    1.06349	    0.96825;
	243	 1	 94.1	 -4.7	 0.0	 0.0	 1	    1.07939	   -7.86886	 225.0	 1	    1.08889	    1.00000;
	244	 1	 31.6	 4.2	 0.0	 0.0	 1	    1.04263	  -12.72857	 63.0	 1	    1.06349	    0.96825;
	245	 1	 20.3	 9.9	 0.0	 0.0	 1	    1.06085	   -2.16689	 225.0	 1	    1.08889	    0.98667;
	246	 1	 0.0	 0.0	 0.0	 0.0	 1	    1.01989	    0.72179	 380.0	 1	    1.10526	    1.00000;
	2609	 1	 0.0	 0.0	 0.0	 0.0	 1	    1.02239	    0.34308	 380.0	 1	    1.10526	    1.00000;
	2610	 1	 0.0	 0.0	 0.0	 0.0	 1	    1.02004	    0.64617	 380.0	 1	    1.10526	    1.00000;
	2611	 1	 0.0	 0.0	 0.0	 0.0	 1	    1.02194	    0.43440	 380.0	 1	    1.10526	    1.00000;
	247	 1	 6.0	 -0.9	 0.0	 0.0	 1	    1.07755	   -2.06704	 225.0	 1	    1.08889	    0.92444;
	248	 1	 17.4	 1.8	 0.0	 0.0	 1	    1.00336	   -6.38189	 63.0	 1	    1.06349	    0.93651;
	249	 1	 9.4	 -0.6	 0.0	 0.0	 1	    0.97620	  -10.62408	 63.0	 1	    1.06349	    0.93651;
	250	 1	 4.2	 1.9	 0.0	 0.0	 1	    1.03903	   -6.80111	 225.0	 1	    1.08889	    0.98667;
	251	 1	 62.1	 20.2	 0.0	 0.0	 1	    1.07337	  -10.69602	 225.0	 1	    1.08684	    1.00000;
	252	 2	 5.5	 4.5	 0.0	 0.0	 1	    0.89411	   -2.72851	 45.0	 1	    1.00000	    0.88889;
	253	 1	 -2.8	 -1.5	 0.0	 0.0	 1	    1.03692	    0.75875	 380.0	 1	    1.10263	    1.00000;
	254	 1	 -2.8	 -1.4	 0.0	 0.0	 1	    1.03700	    0.74644	 380.0	 1	    1.10263	    1.00000;
	255	 1	 8.3	 -7.3	 0.0	 0.0	 1	    1.02270	   -6.54601	 63.0	 1	    1.06754	    0.93651;
	256	 1	 0.0	 0.0	 0.0	 0.0	 1	    1.05591	   -6.70606	 225.0	 1	    1.08889	    1.00000;
	257	 1	 0.0	 0.0	 0.0	 0.0	 1	    1.05827	   -3.20083	 225.0	 1	    1.08889	    0.97778;
	2612	 1	 0.0	 0.0	 0.0	 0.0	 1	    1.05827	   -3.20083	 225.0	 1	    1.08889	    0.97778;
	258	 1	 19.3	 -3.2	 0.0	 0.0	 1	    1.07725	   -2.60107	 225.0	 1	    1.08889	    0.96889;
	259	 2	 0.0	 0.0	 0.0	 0.0	 1	    0.99456	   -1.36976	 20.0	 1	    1.20000	    0.80000;
	2613	 2	 0.0	 0.0	 0.0	 0.0	 1	    1.02476	    0.21719	 20.0	 1	    1.20000	    0.80000;
	2614	 2	 0.0	 0.0	 0.0	 0.0	 1	    1.02476	    0.21719	 20.0	 1	    1.20000	    0.80000;
	260	 1	 0.0	 0.0	 0.0	 0.0	 1	    1.00345	   -2.23047	 225.0	 1	    1.08889	    0.93333;
	2615	 1	 0.0	 0.0	 0.0	 0.0	 1	    1.02476	    0.21719	 225.0	 1	    1.08889	    0.93333;
	261	 1	 50.0	 4.4	 0.0	 0.0	 1	    1.07671	   -9.06569	 225.0	 1	    1.08489	    1.00000;
	262	 2	 13.9	 -2.1	 0.0	 0.0	 1	    0.89381	   -2.72462	 45.0	 1	    1.00000	    0.88889;
	263	 1	 19.0	 1.9	 0.0	 0.0	 1	    1.07365	   -9.36031	 20.0	 1	    1.20000	    0.80000;
	2616	 1	 17.5	 -0.7	 0.0	 0.0	 1	    1.07368	   -9.35979	 20.0	 1	    1.20000	    0.80000;
	2617	 1	 10.8	 -3.5	 0.0	 0.0	 1	    1.07370	   -9.35711	 20.0	 1	    1.20000	    0.80000;
	264	 1	 134.0	 -1.7	 0.0	 0.0	 1	    1.07368	   -9.35249	 225.0	 1	    1.08444	    1.00000;
	265	 1	 15.2	 -2.7	 0.0	 0.0	 1	    1.03120	   -8.01130	 63.0	 1	    1.06349	    0.96825;
	266	 1	 0.0	 0.0	 0.0	 0.0	 1	    1.06117	   -2.97930	 225.0	 1	    1.08889	    0.97778;
	267	 1	 0.0	 0.0	 0.0	 0.0	 1	    1.06080	   -2.66440	 225.0	 1	    1.08444	    1.00000;
	268	 1	 15.8	 -8.1	 0.0	 0.0	 1	    1.01689	   -7.43432	 63.0	 1	    1.06349	    0.93651;
	269	 1	 28.5	 3.5	 0.0	 0.0	 1	    1.02118	  -16.93562	 63.0	 1	    1.06349	    0.96825;
	270	 1	 59.2	 -3.0	 0.0	 0.0	 1	    1.06989	   -5.44890	 225.0	 1	    1.08889	    0.95111;
	271	 2	 0.0	 0.0	 0.0	 0.0	 1	    1.00079	   -4.03332	 63.0	 1	    1.06349	    0.93651;
	272	 1	 40.2	 1.2	 0.0	 0.0	 1	    1.05794	   -5.13398	 225.0	 1	    1.08889	    1.00000;
	273	 1	 15.7	 -9.2	 0.0	 0.0	 1	    1.03848	   -7.03693	 225.0	 1	    1.08889	    0.98667;
	274	 2	 0.0	 0.0	 0.0	 0.0	 1	    0.99787	   -4.11074	 63.0	 1	    1.06349	    0.93651;
	275	 2	 0.0	 0.0	 0.0	 0.0	 1	    0.99919	   -3.93880	 63.0	 1	    1.06349	    0.93651;
	276	 1	 9.7	 -2.8	 0.0	 0.0	 1	    1.03179	   -7.52154	 63.0	 1	    1.09138	    0.92063;
	277	 1	 11.5	 -2.0	 0.0	 0.0	 1	    1.02307	   -6.14221	 63.0	 1	    1.06725	    0.93651;
	279	 1	 15.4	 -1.6	 0.0	 0.0	 1	    1.07768	  -13.49089	 225.0	 1	    1.08444	    1.00000;
	280	 1	 0.0	 0.0	 0.0	 0.0	 1	    1.07711	  -12.07750	 380.0	 1	    1.10263	    1.00000;
	281	 1	 32.8	 -2.2	 0.0	 0.0	 1	    1.00021	   -5.74882	 63.0	 1	    1.06349	    0.96825;
	282	 1	 54.5	 4.4	 0.0	 0.0	 1	    1.05767	   -5.27430	 225.0	 1	    1.08889	    1.00000;
	283	 2	 0.0	 0.0	 0.0	 0.0	 1	    1.07633	   -2.69887	 225.0	 1	    1.08889	    0.88889;