%%%%%%%%%%%%%%%%%%%%%%%%%%%%%%%%%%%%%%%%%%%%%%%%%%%%%%%%%%%%%%%%%%%%%%%%%%%
%%%%                                                                  %%%%%
%%%%    IEEE PES Power Grid Library - Optimal Power Flow - v21.07     %%%%%
%%%%          (https://github.com/power-grid-lib/pglib-opf)           %%%%%
%%%%             Benchmark Group - Small Angle Difference             %%%%%
%%%%                         29 - July - 2021                         %%%%%
%%%%                                                                  %%%%%
%%%%%%%%%%%%%%%%%%%%%%%%%%%%%%%%%%%%%%%%%%%%%%%%%%%%%%%%%%%%%%%%%%%%%%%%%%%
function mpc = pglib_opf_case588_sdet__sad
mpc.version = '2';
mpc.baseMVA = 100.0;

%% bus data
%	bus_i	type	Pd	Qd	Gs	Bs	area	Vm	Va	baseKV	zone	Vmax	Vmin
mpc.bus = [
	1	 1	 89.79	 28.55	 0.0	 0.0	 1	    1.00000	    0.00000	 345.0	 1	    1.10000	    0.90000;
	2	 1	 0.0	 0.0	 0.0	 -20.0	 1	    1.00000	    0.00000	 345.0	 1	    1.10000	    0.90000;
	3	 2	 0.0	 0.0	 0.0	 62.35	 1	    1.00000	    0.00000	 500.0	 1	    1.10000	    0.90000;
	4	 2	 0.0	 0.0	 0.0	 0.0	 1	    1.00000	    0.00000	 500.0	 1	    1.10000	    0.90000;
	5	 1	 32.47	 85.89	 0.0	 0.0	 1	    1.00000	    0.00000	 500.0	 1	    1.10000	    0.90000;
	6	 1	 0.0	 0.0	 0.0	 0.0	 1	    1.00000	    0.00000	 500.0	 1	    1.10000	    0.90000;
	7	 1	 0.0	 0.0	 0.0	 0.0	 1	    1.00000	    0.00000	 345.0	 1	    1.10000	    0.90000;
	8	 1	 0.0	 0.0	 0.0	 0.0	 1	    1.00000	    0.00000	 345.0	 1	    1.10000	    0.90000;
	9	 2	 0.0	 0.0	 0.0	 8.24	 1	    1.00000	    0.00000	 345.0	 1	    1.10000	    0.90000;
	10	 2	 0.0	 0.0	 0.0	 0.0	 1	    1.00000	    0.00000	 345.0	 1	    1.10000	    0.90000;
	11	 1	 0.0	 0.0	 0.0	 31.41	 1	    1.00000	    0.00000	 345.0	 1	    1.10000	    0.90000;
	12	 1	 0.0	 0.0	 0.0	 83.61	 1	    1.00000	    0.00000	 500.0	 1	    1.10000	    0.90000;
	13	 1	 0.0	 0.0	 0.0	 70.0	 1	    1.00000	    0.00000	 500.0	 1	    1.10000	    0.90000;
	14	 1	 0.0	 0.0	 0.0	 0.0	 1	    1.00000	    0.00000	 500.0	 1	    1.10000	    0.90000;
	15	 2	 11.0	 40.0	 0.0	 0.0	 1	    1.00000	    0.00000	 500.0	 1	    1.10000	    0.90000;
	16	 2	 5.0	 10.0	 0.0	 0.0	 1	    1.00000	    0.00000	 500.0	 1	    1.10000	    0.90000;
	17	 1	 52.71	 60.23	 0.0	 0.0	 1	    1.00000	    0.00000	 345.0	 1	    1.10000	    0.90000;
	18	 1	 6.93	 3.11	 0.0	 0.0	 1	    1.00000	    0.00000	 138.0	 1	    1.10000	    0.90000;
	19	 2	 14.65	 1.0	 0.0	 0.0	 1	    1.00000	    0.00000	 138.0	 1	    1.10000	    0.90000;
	20	 2	 8.14	 1.32	 0.0	 0.0	 1	    1.00000	    0.00000	 138.0	 1	    1.10000	    0.90000;
	21	 1	 14.17	 4.22	 0.0	 0.0	 1	    1.00000	    0.00000	 138.0	 1	    1.10000	    0.90000;
	22	 2	 4.22	 1.0	 0.0	 0.0	 1	    1.00000	    0.00000	 138.0	 1	    1.10000	    0.90000;
	23	 1	 0.0	 0.0	 0.0	 26.67	 1	    1.00000	    0.00000	 138.0	 1	    1.10000	    0.90000;
	24	 1	 0.0	 0.0	 0.0	 48.6	 1	    1.00000	    0.00000	 32.0	 1	    1.10000	    0.90000;
	25	 1	 0.0	 0.0	 0.0	 0.0	 1	    1.00000	    0.00000	 138.0	 1	    1.10000	    0.90000;
	26	 1	 31.97	 20.83	 0.0	 0.0	 1	    1.00000	    0.00000	 138.0	 1	    1.10000	    0.90000;
	27	 1	 5.22	 2.11	 0.0	 0.0	 1	    1.00000	    0.00000	 138.0	 1	    1.10000	    0.90000;
	28	 1	 2.61	 1.0	 0.0	 0.0	 1	    1.00000	    0.00000	 138.0	 1	    1.10000	    0.90000;
	29	 2	 0.01	 0.01	 0.0	 0.0	 1	    1.00000	    0.00000	 138.0	 1	    1.10000	    0.90000;
	30	 2	 0.01	 0.01	 0.0	 0.0	 1	    1.00000	    0.00000	 138.0	 1	    1.10000	    0.90000;
	31	 1	 15.67	 5.22	 0.0	 0.0	 1	    1.00000	    0.00000	 138.0	 1	    1.10000	    0.90000;
	32	 1	 16.78	 4.72	 0.0	 0.0	 1	    1.00000	    0.00000	 138.0	 1	    1.10000	    0.90000;
	33	 1	 0.0	 0.0	 0.0	 45.0	 1	    1.00000	    0.00000	 16.0	 1	    1.10000	    0.90000;
	34	 1	 4.22	 0.5	 0.0	 0.0	 1	    1.00000	    0.00000	 138.0	 1	    1.10000	    0.90000;
	35	 1	 9.95	 2.11	 0.0	 0.0	 1	    1.00000	    0.00000	 138.0	 1	    1.10000	    0.90000;
	36	 1	 10.85	 1.0	 0.0	 0.0	 1	    1.00000	    0.00000	 138.0	 1	    1.10000	    0.90000;
	37	 2	 14.67	 3.11	 0.0	 0.0	 1	    1.00000	    0.00000	 138.0	 1	    1.10000	    0.90000;
	38	 1	 7.54	 1.0	 0.0	 0.0	 1	    1.00000	    0.00000	 138.0	 1	    1.10000	    0.90000;
	39	 1	 2.11	 0.5	 0.0	 0.0	 1	    1.00000	    0.00000	 138.0	 1	    1.10000	    0.90000;
	40	 1	 2.11	 0.5	 0.0	 0.0	 1	    1.00000	    0.00000	 138.0	 1	    1.10000	    0.90000;
	41	 1	 8.74	 3.11	 0.0	 0.0	 1	    1.00000	    0.00000	 138.0	 1	    1.10000	    0.90000;
	42	 1	 5.73	 1.0	 0.0	 0.0	 1	    1.00000	    0.00000	 138.0	 1	    1.10000	    0.90000;
	43	 1	 43.38	 6.25	 0.0	 0.0	 1	    1.00000	    0.00000	 138.0	 1	    1.10000	    0.90000;
	44	 2	 9.45	 2.61	 0.0	 0.0	 1	    1.00000	    0.00000	 138.0	 1	    1.10000	    0.90000;
	45	 2	 42.03	 12.76	 0.0	 0.0	 1	    1.00000	    0.00000	 138.0	 1	    1.10000	    0.90000;
	46	 1	 15.67	 2.61	 0.0	 0.0	 1	    1.00000	    0.00000	 138.0	 1	    1.10000	    0.90000;
	47	 1	 19.89	 6.83	 0.0	 0.0	 1	    1.00000	    0.00000	 138.0	 1	    1.10000	    0.90000;
	48	 1	 8.34	 2.71	 0.0	 0.0	 1	    1.00000	    0.00000	 138.0	 1	    1.10000	    0.90000;
	49	 2	 16.78	 6.33	 0.0	 0.0	 1	    1.00000	    0.00000	 138.0	 1	    1.10000	    0.90000;
	50	 1	 13.14	 1.26	 0.0	 0.0	 1	    1.00000	    0.00000	 138.0	 1	    1.10000	    0.90000;
	51	 1	 5.22	 0.5	 0.0	 0.0	 1	    1.00000	    0.00000	 138.0	 1	    1.10000	    0.90000;
	52	 1	 0.0	 0.0	 0.0	 -16.07	 1	    1.00000	    0.00000	 138.0	 1	    1.10000	    0.90000;
	53	 1	 68.66	 4.97	 0.0	 -2.01	 1	    1.00000	    0.00000	 138.0	 1	    1.10000	    0.90000;
	54	 2	 9.45	 1.0	 0.0	 -0.93	 1	    1.00000	    0.00000	 138.0	 1	    1.10000	    0.90000;
	55	 1	 8.34	 3.11	 0.0	 0.0	 1	    1.00000	    0.00000	 138.0	 1	    1.10000	    0.90000;
	56	 1	 0.0	 0.0	 0.0	 0.0	 1	    1.00000	    0.00000	 138.0	 1	    1.10000	    0.90000;
	57	 1	 19.16	 2.01	 0.0	 0.0	 1	    1.00000	    0.00000	 138.0	 1	    1.10000	    0.90000;
	58	 2	 30.44	 4.22	 0.0	 0.0	 1	    1.00000	    0.00000	 138.0	 1	    1.10000	    0.90000;
	59	 1	 18.89	 4.72	 0.0	 0.0	 1	    1.00000	    0.00000	 138.0	 1	    1.10000	    0.90000;
	60	 2	 11.55	 1.0	 0.0	 0.0	 1	    1.00000	    0.00000	 138.0	 1	    1.10000	    0.90000;
	61	 1	 17.78	 4.22	 0.0	 0.0	 1	    1.00000	    0.00000	 138.0	 1	    1.10000	    0.90000;
	62	 1	 0.0	 0.0	 0.0	 0.0	 1	    1.00000	    0.00000	 138.0	 1	    1.10000	    0.90000;
	63	 1	 0.0	 0.0	 0.0	 -15.19	 1	    1.00000	    0.00000	 138.0	 1	    1.10000	    0.90000;
	64	 1	 0.0	 0.0	 0.0	 -14.11	 1	    1.00000	    0.00000	 138.0	 1	    1.10000	    0.90000;
	65	 1	 0.0	 0.0	 0.0	 0.0	 1	    1.00000	    0.00000	 500.0	 1	    1.10000	    0.90000;
	66	 1	 0.0	 0.0	 0.0	 30.47	 2	    1.00000	    0.00000	 345.0	 2	    1.10000	    0.90000;
	67	 1	 0.0	 0.0	 0.0	 -20.0	 2	    1.00000	    0.00000	 345.0	 2	    1.10000	    0.90000;
	68	 2	 0.0	 0.0	 0.0	 62.48	 2	    1.00000	    0.00000	 500.0	 2	    1.10000	    0.90000;
	69	 2	 0.0	 0.0	 0.0	 0.0	 2	    1.00000	    0.00000	 500.0	 2	    1.10000	    0.90000;
	70	 1	 32.47	 85.89	 0.0	 0.0	 2	    1.00000	    0.00000	 500.0	 2	    1.10000	    0.90000;
	71	 1	 0.0	 0.0	 0.0	 0.0	 2	    1.00000	    0.00000	 500.0	 2	    1.10000	    0.90000;
	72	 1	 0.0	 0.0	 0.0	 0.0	 2	    1.00000	    0.00000	 345.0	 2	    1.10000	    0.90000;
	73	 1	 0.0	 0.0	 0.0	 0.0	 2	    1.00000	    0.00000	 345.0	 2	    1.10000	    0.90000;
	74	 2	 0.0	 0.0	 0.0	 -84.68	 2	    1.00000	    0.00000	 345.0	 2	    1.10000	    0.90000;
	75	 2	 0.0	 0.0	 0.0	 0.0	 2	    1.00000	    0.00000	 345.0	 2	    1.10000	    0.90000;
	76	 1	 42.84	 29.61	 0.0	 0.0	 2	    1.00000	    0.00000	 345.0	 2	    1.10000	    0.90000;
	77	 1	 0.0	 0.0	 0.0	 83.62	 2	    1.00000	    0.00000	 500.0	 2	    1.10000	    0.90000;
	78	 1	 0.0	 0.0	 0.0	 70.0	 2	    1.00000	    0.00000	 500.0	 2	    1.10000	    0.90000;
	79	 1	 0.0	 0.0	 0.0	 0.0	 2	    1.00000	    0.00000	 500.0	 2	    1.10000	    0.90000;
	80	 2	 11.0	 40.0	 0.0	 0.0	 2	    1.00000	    0.00000	 500.0	 2	    1.10000	    0.90000;
	81	 2	 5.0	 10.0	 0.0	 0.0	 2	    1.00000	    0.00000	 500.0	 2	    1.10000	    0.90000;
	82	 1	 52.71	 60.23	 0.0	 0.0	 2	    1.00000	    0.00000	 345.0	 2	    1.10000	    0.90000;
	83	 1	 6.93	 3.11	 0.0	 0.0	 2	    1.00000	    0.00000	 138.0	 2	    1.10000	    0.90000;
	84	 2	 14.65	 1.0	 0.0	 0.0	 2	    1.00000	    0.00000	 138.0	 2	    1.10000	    0.90000;
	85	 2	 8.14	 1.32	 0.0	 0.0	 2	    1.00000	    0.00000	 138.0	 2	    1.10000	    0.90000;
	86	 1	 14.17	 4.22	 0.0	 0.0	 2	    1.00000	    0.00000	 138.0	 2	    1.10000	    0.90000;
	87	 2	 4.22	 1.0	 0.0	 0.0	 2	    1.00000	    0.00000	 138.0	 2	    1.10000	    0.90000;
	88	 1	 61.49	 28.47	 0.0	 0.0	 2	    1.00000	    0.00000	 138.0	 2	    1.10000	    0.90000;
	89	 1	 0.0	 0.0	 0.0	 48.6	 2	    1.00000	    0.00000	 32.0	 2	    1.10000	    0.90000;
	90	 1	 0.0	 0.0	 0.0	 0.0	 2	    1.00000	    0.00000	 138.0	 2	    1.10000	    0.90000;
	91	 1	 3.95	 20.83	 0.0	 0.0	 2	    1.00000	    0.00000	 138.0	 2	    1.10000	    0.90000;
	92	 1	 5.22	 2.11	 0.0	 0.0	 2	    1.00000	    0.00000	 138.0	 2	    1.10000	    0.90000;
	93	 1	 2.61	 1.0	 0.0	 0.0	 2	    1.00000	    0.00000	 138.0	 2	    1.10000	    0.90000;
	94	 2	 0.01	 0.01	 0.0	 0.0	 2	    1.00000	    0.00000	 138.0	 2	    1.10000	    0.90000;
	95	 2	 0.01	 0.01	 0.0	 0.0	 2	    1.00000	    0.00000	 138.0	 2	    1.10000	    0.90000;
	96	 1	 15.67	 5.22	 0.0	 0.0	 2	    1.00000	    0.00000	 138.0	 2	    1.10000	    0.90000;
	97	 1	 16.78	 4.72	 0.0	 0.0	 2	    1.00000	    0.00000	 138.0	 2	    1.10000	    0.90000;
	98	 1	 0.0	 0.0	 0.0	 45.0	 2	    1.00000	    0.00000	 16.0	 2	    1.10000	    0.90000;
	99	 1	 4.22	 0.5	 0.0	 0.0	 2	    1.00000	    0.00000	 138.0	 2	    1.10000	    0.90000;
	100	 1	 9.95	 2.11	 0.0	 0.0	 2	    1.00000	    0.00000	 138.0	 2	    1.10000	    0.90000;
	101	 1	 10.85	 1.0	 0.0	 0.0	 2	    1.00000	    0.00000	 138.0	 2	    1.10000	    0.90000;
	102	 2	 14.67	 3.11	 0.0	 0.0	 2	    1.00000	    0.00000	 138.0	 2	    1.10000	    0.90000;
	103	 1	 7.54	 1.0	 0.0	 0.0	 2	    1.00000	    0.00000	 138.0	 2	    1.10000	    0.90000;
	104	 1	 2.11	 0.5	 0.0	 0.0	 2	    1.00000	    0.00000	 138.0	 2	    1.10000	    0.90000;
	105	 1	 2.11	 0.5	 0.0	 0.0	 2	    1.00000	    0.00000	 138.0	 2	    1.10000	    0.90000;
	106	 1	 8.74	 3.11	 0.0	 0.0	 2	    1.00000	    0.00000	 138.0	 2	    1.10000	    0.90000;
	107	 1	 5.73	 1.0	 0.0	 0.0	 2	    1.00000	    0.00000	 138.0	 2	    1.10000	    0.90000;
	108	 1	 43.11	 6.25	 0.0	 0.0	 2	    1.00000	    0.00000	 138.0	 2	    1.10000	    0.90000;
	109	 2	 9.45	 2.61	 0.0	 0.0	 2	    1.00000	    0.00000	 138.0	 2	    1.10000	    0.90000;
	110	 2	 42.03	 12.76	 0.0	 0.0	 2	    1.00000	    0.00000	 138.0	 2	    1.10000	    0.90000;
	111	 1	 15.67	 2.61	 0.0	 0.0	 2	    1.00000	    0.00000	 138.0	 2	    1.10000	    0.90000;
	112	 1	 19.89	 6.83	 0.0	 0.0	 2	    1.00000	    0.00000	 138.0	 2	    1.10000	    0.90000;
	113	 1	 8.34	 2.71	 0.0	 0.0	 2	    1.00000	    0.00000	 138.0	 2	    1.10000	    0.90000;
	114	 2	 16.78	 6.33	 0.0	 0.0	 2	    1.00000	    0.00000	 138.0	 2	    1.10000	    0.90000;
	115	 1	 13.14	 1.26	 0.0	 0.0	 2	    1.00000	    0.00000	 138.0	 2	    1.10000	    0.90000;
	116	 1	 5.22	 0.5	 0.0	 0.0	 2	    1.00000	    0.00000	 138.0	 2	    1.10000	    0.90000;
	117	 1	 0.0	 0.0	 0.0	 -16.07	 2	    1.00000	    0.00000	 138.0	 2	    1.10000	    0.90000;
	118	 1	 68.66	 4.97	 0.0	 -2.01	 2	    1.00000	    0.00000	 138.0	 2	    1.10000	    0.90000;
	119	 2	 9.45	 1.0	 0.0	 1.92	 2	    1.00000	    0.00000	 138.0	 2	    1.10000	    0.90000;
	120	 1	 8.34	 3.11	 0.0	 0.0	 2	    1.00000	    0.00000	 138.0	 2	    1.10000	    0.90000;
	121	 1	 0.0	 0.0	 0.0	 0.0	 2	    1.00000	    0.00000	 138.0	 2	    1.10000	    0.90000;
	122	 1	 19.16	 2.01	 0.0	 0.0	 2	    1.00000	    0.00000	 138.0	 2	    1.10000	    0.90000;
	123	 2	 30.44	 4.22	 0.0	 0.0	 2	    1.00000	    0.00000	 138.0	 2	    1.10000	    0.90000;
	124	 1	 18.89	 4.72	 0.0	 0.0	 2	    1.00000	    0.00000	 138.0	 2	    1.10000	    0.90000;
	125	 2	 11.55	 1.0	 0.0	 0.0	 2	    1.00000	    0.00000	 138.0	 2	    1.10000	    0.90000;
	126	 1	 17.78	 4.22	 0.0	 0.0	 2	    1.00000	    0.00000	 138.0	 2	    1.10000	    0.90000;
	127	 1	 0.0	 0.0	 0.0	 0.0	 2	    1.00000	    0.00000	 138.0	 2	    1.10000	    0.90000;
	128	 1	 0.0	 0.0	 0.0	 -15.19	 2	    1.00000	    0.00000	 138.0	 2	    1.10000	    0.90000;
	129	 1	 0.0	 0.0	 0.0	 -14.11	 2	    1.00000	    0.00000	 138.0	 2	    1.10000	    0.90000;
	130	 1	 0.0	 0.0	 0.0	 0.0	 2	    1.00000	    0.00000	 500.0	 2	    1.10000	    0.90000;
	131	 1	 40.59	 70.73	 0.0	 0.0	 3	    1.00000	    0.00000	 345.0	 3	    1.10000	    0.90000;
	132	 2	 0.0	 0.0	 0.0	 -176.98	 3	    1.00000	    0.00000	 345.0	 3	    1.10000	    0.90000;
	133	 2	 0.0	 0.0	 0.0	 0.0	 3	    1.00000	    0.00000	 500.0	 3	    1.10000	    0.90000;
	134	 1	 0.0	 0.0	 0.0	 0.0	 3	    1.00000	    0.00000	 500.0	 3	    1.10000	    0.90000;
	135	 2	 0.0	 0.0	 0.0	 17.28	 3	    1.00000	    0.00000	 500.0	 3	    1.10000	    0.90000;
	136	 1	 8.38	 1.2	 0.0	 0.0	 3	    1.00000	    0.00000	 138.0	 3	    1.10000	    0.90000;
	137	 1	 4.83	 1.1	 0.0	 0.0	 3	    1.00000	    0.00000	 138.0	 3	    1.10000	    0.90000;
	138	 2	 0.0	 0.0	 0.0	 0.0	 3	    1.00000	    0.00000	 138.0	 3	    1.10000	    0.90000;
	139	 1	 11.55	 5.82	 0.0	 0.0	 3	    1.00000	    0.00000	 138.0	 3	    1.10000	    0.90000;
	140	 1	 13.16	 4.92	 0.0	 0.0	 3	    1.00000	    0.00000	 138.0	 3	    1.10000	    0.90000;
	141	 1	 26.04	 3.35	 0.0	 0.0	 3	    1.00000	    0.00000	 138.0	 3	    1.10000	    0.90000;
	142	 2	 12.56	 2.11	 0.0	 13.51	 3	    1.00000	    0.00000	 138.0	 3	    1.10000	    0.90000;
	143	 1	 4.72	 0.7	 0.0	 0.0	 3	    1.00000	    0.00000	 138.0	 3	    1.10000	    0.90000;
	144	 2	 9.45	 -3.27	 0.0	 0.0	 3	    1.00000	    0.00000	 138.0	 3	    1.10000	    0.90000;
	145	 1	 10.15	 4.22	 0.0	 0.0	 3	    1.00000	    0.00000	 138.0	 3	    1.10000	    0.90000;
	146	 1	 0.0	 0.0	 0.0	 0.0	 3	    1.00000	    0.00000	 138.0	 3	    1.10000	    0.90000;
	147	 1	 0.0	 0.0	 0.0	 0.0	 3	    1.00000	    0.00000	 138.0	 3	    1.10000	    0.90000;
	148	 1	 0.0	 0.0	 0.0	 0.0	 3	    1.00000	    0.00000	 138.0	 3	    1.10000	    0.90000;
	149	 1	 0.0	 0.0	 0.0	 60.0	 3	    1.00000	    0.00000	 16.0	 3	    1.10000	    0.90000;
	150	 1	 17.78	 4.22	 0.0	 0.0	 3	    1.00000	    0.00000	 138.0	 3	    1.10000	    0.90000;
	151	 1	 8.04	 4.12	 0.0	 0.0	 3	    1.00000	    0.00000	 138.0	 3	    1.10000	    0.90000;
	152	 2	 0.01	 0.01	 0.0	 0.0	 3	    1.00000	    0.00000	 138.0	 3	    1.10000	    0.90000;
	153	 2	 73.33	 31.39	 0.0	 0.0	 3	    1.00000	    0.00000	 138.0	 3	    1.10000	    0.90000;
	154	 1	 62.9	 26.21	 0.0	 0.0	 3	    1.00000	    0.00000	 138.0	 3	    1.10000	    0.90000;
	155	 1	 0.0	 0.0	 0.0	 0.0	 3	    1.00000	    0.00000	 138.0	 3	    1.10000	    0.90000;
	156	 1	 8.34	 2.61	 0.0	 0.0	 3	    1.00000	    0.00000	 138.0	 3	    1.10000	    0.90000;
	157	 2	 5.12	 0.68	 0.0	 0.0	 3	    1.00000	    0.00000	 138.0	 3	    1.10000	    0.90000;
	158	 1	 15.17	 4.72	 0.0	 0.0	 3	    1.00000	    0.00000	 138.0	 3	    1.10000	    0.90000;
	159	 2	 13.66	 6.33	 0.0	 2.71	 3	    1.00000	    0.00000	 138.0	 3	    1.10000	    0.90000;
	160	 2	 8.94	 2.32	 0.0	 3.95	 3	    1.00000	    0.00000	 138.0	 3	    1.10000	    0.90000;
	161	 1	 13.99	 11.8	 0.0	 0.0	 3	    1.00000	    0.00000	 138.0	 3	    1.10000	    0.90000;
	162	 1	 9.45	 2.21	 0.0	 0.0	 3	    1.00000	    0.00000	 138.0	 3	    1.10000	    0.90000;
	163	 1	 11.55	 2.61	 0.0	 0.0	 3	    1.00000	    0.00000	 138.0	 3	    1.10000	    0.90000;
	164	 1	 3.92	 1.61	 0.0	 0.0	 3	    1.00000	    0.00000	 138.0	 3	    1.10000	    0.90000;
	165	 1	 16.28	 5.22	 0.0	 3.33	 3	    1.00000	    0.00000	 138.0	 3	    1.10000	    0.90000;
	166	 1	 12.46	 5.82	 0.0	 0.0	 3	    1.00000	    0.00000	 138.0	 3	    1.10000	    0.90000;
	167	 2	 0.0	 0.0	 0.0	 15.41	 3	    1.00000	    0.00000	 138.0	 3	    1.10000	    0.90000;
	168	 2	 12.56	 4.22	 0.0	 -33.87	 3	    1.00000	    0.00000	 138.0	 3	    1.10000	    0.90000;
	169	 1	 23.61	 4.72	 0.0	 0.0	 3	    1.00000	    0.00000	 138.0	 3	    1.10000	    0.90000;
	170	 1	 0.1	 0.1	 0.0	 0.0	 3	    1.00000	    0.00000	 138.0	 3	    1.10000	    0.90000;
	171	 1	 0.1	 0.1	 0.0	 0.0	 3	    1.00000	    0.00000	 138.0	 3	    1.10000	    0.90000;
	172	 2	 9.45	 2.31	 0.0	 0.0	 3	    1.00000	    0.00000	 138.0	 3	    1.10000	    0.90000;
	173	 1	 13.56	 6.23	 0.0	 0.0	 3	    1.00000	    0.00000	 138.0	 3	    1.10000	    0.90000;
	174	 1	 6.83	 2.61	 0.0	 0.0	 3	    1.00000	    0.00000	 138.0	 3	    1.10000	    0.90000;
	175	 1	 4.72	 2.61	 0.0	 0.0	 3	    1.00000	    0.00000	 138.0	 3	    1.10000	    0.90000;
	176	 1	 6.33	 0.9	 0.0	 0.0	 3	    1.00000	    0.00000	 138.0	 3	    1.10000	    0.90000;
	177	 1	 4.12	 2.51	 0.0	 0.0	 3	    1.00000	    0.00000	 138.0	 3	    1.10000	    0.90000;
	178	 2	 0.01	 0.01	 0.0	 0.0	 3	    1.00000	    0.00000	 138.0	 3	    1.10000	    0.90000;
	179	 1	 44.31	 -3.0	 0.0	 0.0	 3	    1.00000	    0.00000	 138.0	 3	    1.10000	    0.90000;
	180	 2	 6.33	 1.57	 0.0	 1.75	 3	    1.00000	    0.00000	 138.0	 3	    1.10000	    0.90000;
	181	 1	 61.44	 45.53	 0.0	 0.0	 4	    1.00000	    0.00000	 345.0	 4	    1.10000	    0.90000;
	182	 1	 0.0	 0.0	 0.0	 0.0	 4	    1.00000	    0.00000	 345.0	 4	    1.10000	    0.90000;
	183	 2	 33.51	 159.4	 0.0	 0.0	 4	    1.00000	    0.00000	 345.0	 4	    1.10000	    0.90000;
	184	 2	 19.91	 36.57	 0.0	 0.0	 4	    1.00000	    0.00000	 345.0	 4	    1.10000	    0.90000;
	185	 2	 12.0	 30.0	 0.0	 0.0	 4	    1.00000	    0.00000	 500.0	 4	    1.10000	    0.90000;
	186	 2	 12.0	 30.0	 0.0	 0.0	 4	    1.00000	    0.00000	 500.0	 4	    1.10000	    0.90000;
	187	 2	 0.0	 0.0	 0.0	 0.0	 4	    1.00000	    0.00000	 500.0	 4	    1.10000	    0.90000;
	188	 1	 0.0	 0.0	 0.0	 93.07	 4	    1.00000	    0.00000	 500.0	 4	    1.10000	    0.90000;
	189	 1	 33.41	 22.47	 0.0	 0.0	 4	    1.00000	    0.00000	 345.0	 4	    1.10000	    0.90000;
	190	 1	 18.51	 68.88	 0.0	 0.0	 4	    1.00000	    0.00000	 345.0	 4	    1.10000	    0.90000;
	191	 1	 14.74	 4.03	 0.0	 0.0	 4	    1.00000	    0.00000	 345.0	 4	    1.10000	    0.90000;
	192	 1	 0.0	 0.0	 0.0	 168.92	 4	    1.00000	    0.00000	 500.0	 4	    1.10000	    0.90000;
	193	 1	 32.23	 53.02	 0.0	 0.0	 4	    1.00000	    0.00000	 345.0	 4	    1.10000	    0.90000;
	194	 1	 81.5	 85.9	 0.0	 0.0	 4	    1.00000	    0.00000	 345.0	 4	    1.10000	    0.90000;
	195	 1	 0.0	 0.0	 0.0	 0.0	 4	    1.00000	    0.00000	 500.0	 4	    1.10000	    0.90000;
	196	 1	 0.0	 0.0	 0.0	 0.0	 4	    1.00000	    0.00000	 500.0	 4	    1.10000	    0.90000;
	197	 1	 0.0	 0.0	 0.0	 -59.0	 4	    1.00000	    0.00000	 500.0	 4	    1.10000	    0.90000;
	198	 1	 10.84	 2.51	 0.0	 0.0	 4	    1.00000	    0.00000	 138.0	 4	    1.10000	    0.90000;
	199	 2	 129.48	 36.94	 0.0	 0.0	 4	    1.00000	    0.00000	 138.0	 4	    1.10000	    0.90000;
	200	 1	 0.0	 0.0	 0.0	 0.0	 4	    1.00000	    0.00000	 138.0	 4	    1.10000	    0.90000;
	201	 1	 6.56	 2.09	 0.0	 0.0	 4	    1.00000	    0.00000	 138.0	 4	    1.10000	    0.90000;
	202	 1	 9.38	 2.09	 0.0	 0.0	 4	    1.00000	    0.00000	 138.0	 4	    1.10000	    0.90000;
	203	 1	 12.5	 2.2	 0.0	 0.0	 4	    1.00000	    0.00000	 138.0	 4	    1.10000	    0.90000;
	204	 1	 15.73	 5.75	 0.0	 0.0	 4	    1.00000	    0.00000	 138.0	 4	    1.10000	    0.90000;
	205	 2	 18.77	 6.81	 0.0	 -25.03	 4	    1.00000	    0.00000	 138.0	 4	    1.10000	    0.90000;
	206	 2	 17.19	 7.74	 0.0	 -0.13	 4	    1.00000	    0.00000	 138.0	 4	    1.10000	    0.90000;
	207	 1	 0.0	 0.0	 0.0	 0.42	 4	    1.00000	    0.00000	 138.0	 4	    1.10000	    0.90000;
	208	 1	 83.04	 9.34	 0.0	 0.0	 4	    1.00000	    0.00000	 138.0	 4	    1.10000	    0.90000;
	209	 1	 14.59	 5.34	 0.0	 0.0	 4	    1.00000	    0.00000	 138.0	 4	    1.10000	    0.90000;
	210	 2	 50.24	 12.27	 0.0	 0.0	 4	    1.00000	    0.00000	 138.0	 4	    1.10000	    0.90000;
	211	 1	 0.0	 0.0	 0.0	 41.49	 4	    1.00000	    0.00000	 16.0	 4	    1.10000	    0.90000;
	212	 1	 0.0	 0.0	 0.0	 -1.98	 4	    1.00000	    0.00000	 138.0	 4	    1.10000	    0.90000;
	213	 1	 0.0	 0.0	 0.0	 -50.0	 4	    1.00000	    0.00000	 138.0	 4	    1.10000	    0.90000;
	214	 1	 54.98	 -10.05	 0.0	 0.0	 4	    1.00000	    0.00000	 138.0	 4	    1.10000	    0.90000;
	215	 1	 0.0	 0.0	 0.0	 0.0	 4	    1.00000	    0.00000	 138.0	 4	    1.10000	    0.90000;
	216	 1	 11.06	 -10.28	 0.0	 0.0	 4	    1.00000	    0.00000	 138.0	 4	    1.10000	    0.90000;
	217	 1	 11.46	 3.77	 0.0	 0.0	 4	    1.00000	    0.00000	 138.0	 4	    1.10000	    0.90000;
	218	 1	 11.46	 4.08	 0.0	 0.0	 4	    1.00000	    0.00000	 138.0	 4	    1.10000	    0.90000;
	219	 1	 80.63	 -3.06	 0.0	 0.0	 4	    1.00000	    0.00000	 138.0	 4	    1.10000	    0.90000;
	220	 1	 8.13	 4.5	 0.0	 0.0	 4	    1.00000	    0.00000	 138.0	 4	    1.10000	    0.90000;
	221	 1	 61.27	 10.16	 0.0	 0.0	 4	    1.00000	    0.00000	 138.0	 4	    1.10000	    0.90000;
	222	 2	 11.56	 0.01	 0.0	 -8.53	 4	    1.00000	    0.00000	 138.0	 4	    1.10000	    0.90000;
	223	 1	 0.0	 0.0	 0.0	 0.0	 4	    1.00000	    0.00000	 138.0	 4	    1.10000	    0.90000;
	224	 1	 48.79	 0.5	 0.0	 0.0	 4	    1.00000	    0.00000	 138.0	 4	    1.10000	    0.90000;
	225	 1	 16.9	 2.09	 0.0	 0.0	 4	    1.00000	    0.00000	 138.0	 4	    1.10000	    0.90000;
	226	 2	 13.06	 3.11	 0.0	 0.0	 4	    1.00000	    0.00000	 138.0	 4	    1.10000	    0.90000;
	227	 2	 0.01	 0.0	 0.0	 0.0	 4	    1.00000	    0.00000	 138.0	 4	    1.10000	    0.90000;
	228	 1	 27.71	 2.12	 0.0	 0.0	 4	    1.00000	    0.00000	 138.0	 4	    1.10000	    0.90000;
	229	 1	 0.0	 0.0	 0.0	 0.0	 4	    1.00000	    0.00000	 500.0	 4	    1.10000	    0.90000;
	230	 2	 634.0	 0.0	 0.0	 0.0	 4	    1.00000	    0.00000	 345.0	 4	    1.10000	    0.90000;
	231	 1	 0.0	 0.0	 0.0	 0.0	 5	    1.00000	    0.00000	 69.0	 5	    1.10000	    0.90000;
	232	 1	 0.0	 0.0	 0.0	 0.0	 5	    1.00000	    0.00000	 69.0	 5	    1.10000	    0.90000;
	233	 1	 0.0	 0.0	 0.0	 0.0	 5	    1.00000	    0.00000	 69.0	 5	    1.10000	    0.90000;
	234	 1	 21.69	 -1.14	 0.0	 0.0	 5	    1.00000	    0.00000	 69.0	 5	    1.10000	    0.90000;
	235	 1	 5.25	 -2.87	 0.0	 0.0	 5	    1.00000	    0.00000	 69.0	 5	    1.10000	    0.90000;
	236	 1	 1.58	 0.05	 0.0	 0.0	 5	    1.00000	    0.00000	 69.0	 5	    1.10000	    0.90000;
	237	 2	 0.0	 0.0	 0.0	 0.0	 5	    1.00000	    0.00000	 13.8	 5	    1.10000	    0.90000;
	238	 1	 0.0	 0.0	 0.0	 0.0	 5	    1.00000	    0.00000	 69.0	 5	    1.10000	    0.90000;
	239	 1	 1.22	 -1.86	 0.0	 0.0	 5	    1.00000	    0.00000	 69.0	 5	    1.10000	    0.90000;
	240	 1	 -0.01	 0.48	 0.0	 0.0	 5	    1.00000	    0.00000	 69.0	 5	    1.10000	    0.90000;
	241	 1	 4.71	 -2.69	 0.0	 0.0	 5	    1.00000	    0.00000	 69.0	 5	    1.10000	    0.90000;
	242	 1	 1.64	 0.07	 0.0	 0.0	 5	    1.00000	    0.00000	 69.0	 5	    1.10000	    0.90000;
	243	 1	 2.41	 0.99	 0.0	 0.0	 5	    1.00000	    0.00000	 69.0	 5	    1.10000	    0.90000;
	244	 1	 -101.4	 38.37	 0.0	 0.0	 5	    1.00000	    0.00000	 161.0	 5	    1.10000	    0.90000;
	245	 1	 0.0	 0.0	 0.0	 0.0	 5	    1.00000	    0.00000	 69.0	 5	    1.10000	    0.90000;
	246	 1	 0.0	 0.0	 0.0	 0.0	 5	    1.00000	    0.00000	 69.0	 5	    1.10000	    0.90000;
	247	 1	 0.0	 0.0	 0.0	 0.0	 5	    1.00000	    0.00000	 69.0	 5	    1.10000	    0.90000;
	248	 2	 0.0	 0.0	 0.0	 11.26	 5	    1.00000	    0.00000	 138.0	 5	    1.10000	    0.90000;
	249	 1	 12.26	 1.59	 0.0	 0.0	 5	    1.00000	    0.00000	 161.0	 5	    1.10000	    0.90000;
	250	 1	 5.07	 -2.42	 0.0	 0.0	 5	    1.00000	    0.00000	 69.0	 5	    1.10000	    0.90000;
	251	 1	 4.06	 -1.7	 0.0	 0.0	 5	    1.00000	    0.00000	 69.0	 5	    1.10000	    0.90000;
	252	 1	 0.0	 0.0	 0.0	 0.0	 5	    1.00000	    0.00000	 69.0	 5	    1.10000	    0.90000;
	253	 1	 4.03	 -1.59	 0.0	 0.0	 5	    1.00000	    0.00000	 69.0	 5	    1.10000	    0.90000;
	254	 1	 6.48	 -4.58	 0.0	 0.0	 5	    1.00000	    0.00000	 69.0	 5	    1.10000	    0.90000;
	255	 1	 0.0	 0.0	 0.0	 0.0	 5	    1.00000	    0.00000	 69.0	 5	    1.10000	    0.90000;
	256	 1	 4.82	 -2.17	 0.0	 0.0	 5	    1.00000	    0.00000	 69.0	 5	    1.10000	    0.90000;
	257	 1	 1.85	 -0.21	 0.0	 0.0	 5	    1.00000	    0.00000	 69.0	 5	    1.10000	    0.90000;
	258	 1	 8.98	 -1.01	 0.0	 0.0	 5	    1.00000	    0.00000	 69.0	 5	    1.10000	    0.90000;
	259	 1	 0.0	 0.0	 0.0	 0.0	 5	    1.00000	    0.00000	 69.0	 5	    1.10000	    0.90000;
	260	 1	 20.95	 -0.15	 0.0	 0.0	 5	    1.00000	    0.00000	 138.0	 5	    1.10000	    0.90000;
	261	 1	 0.0	 0.0	 0.0	 0.0	 5	    1.00000	    0.00000	 69.0	 5	    1.10000	    0.90000;
	262	 1	 9.01	 -0.97	 0.0	 0.0	 5	    1.00000	    0.00000	 69.0	 5	    1.10000	    0.90000;
	263	 1	 0.0	 0.0	 0.0	 0.0	 5	    1.00000	    0.00000	 69.0	 5	    1.10000	    0.90000;
	264	 1	 0.95	 -2.5	 0.0	 0.0	 5	    1.00000	    0.00000	 69.0	 5	    1.10000	    0.90000;
	265	 1	 0.0	 0.0	 0.0	 0.0	 5	    1.00000	    0.00000	 345.0	 5	    1.10000	    0.90000;
	266	 1	 1.43	 -0.03	 0.0	 0.0	 5	    1.00000	    0.00000	 69.0	 5	    1.10000	    0.90000;
	267	 1	 0.0	 0.0	 0.0	 0.0	 5	    1.00000	    0.00000	 161.0	 5	    1.10000	    0.90000;
	268	 1	 67.07	 -11.51	 0.0	 0.0	 5	    1.00000	    0.00000	 138.0	 5	    1.10000	    0.90000;
	269	 1	 3.32	 -1.15	 0.0	 0.0	 5	    1.00000	    0.00000	 69.0	 5	    1.10000	    0.90000;
	270	 1	 0.08	 0.5	 0.0	 0.0	 5	    1.00000	    0.00000	 69.0	 5	    1.10000	    0.90000;
	271	 2	 0.0	 0.0	 0.0	 0.0	 5	    1.00000	    0.00000	 138.0	 5	    1.10000	    0.90000;
	272	 1	 2.27	 -0.46	 0.0	 0.0	 5	    1.00000	    0.00000	 69.0	 5	    1.10000	    0.90000;
	273	 1	 0.0	 0.0	 0.0	 0.0	 5	    1.00000	    0.00000	 69.0	 5	    1.10000	    0.90000;
	274	 1	 5.15	 -2.27	 0.0	 0.0	 5	    1.00000	    0.00000	 69.0	 5	    1.10000	    0.90000;
	275	 2	 0.0	 0.0	 0.0	 0.0	 5	    1.00000	    0.00000	 138.0	 5	    1.10000	    0.90000;
	276	 1	 1.76	 -1.57	 0.0	 0.0	 5	    1.00000	    0.00000	 69.0	 5	    1.10000	    0.90000;
	277	 1	 2.43	 1.0	 0.0	 0.0	 5	    1.00000	    0.00000	 69.0	 5	    1.10000	    0.90000;
	278	 2	 0.0	 0.0	 0.0	 0.0	 5	    1.00000	    0.00000	 161.0	 5	    1.10000	    0.90000;
	279	 1	 2.33	 -0.2	 0.0	 0.0	 5	    1.00000	    0.00000	 69.0	 5	    1.10000	    0.90000;
	280	 2	 0.0	 0.0	 0.0	 0.0	 5	    1.00000	    0.00000	 13.8	 5	    1.10000	    0.90000;
	281	 2	 0.0	 0.0	 0.0	 0.0	 5	    1.00000	    0.00000	 138.0	 5	    1.10000	    0.90000;
	282	 1	 0.0	 0.0	 0.0	 0.0	 5	    1.00000	    0.00000	 69.0	 5	    1.10000	    0.90000;
	283	 1	 0.0	 0.0	 0.0	 0.0	 5	    1.00000	    0.00000	 69.0	 5	    1.10000	    0.90000;
	284	 1	 1.7	 -1.58	 0.0	 0.0	 5	    1.00000	    0.00000	 69.0	 5	    1.10000	    0.90000;
	285	 1	 0.0	 0.0	 0.0	 0.0	 5	    1.00000	    0.00000	 69.0	 5	    1.10000	    0.90000;
	286	 1	 2.97	 0.04	 0.0	 0.0	 5	    1.00000	    0.00000	 69.0	 5	    1.10000	    0.90000;
	287	 1	 4.38	 -1.5	 0.0	 0.0	 5	    1.00000	    0.00000	 69.0	 5	    1.10000	    0.90000;
	288	 1	 2.2	 -0.25	 0.0	 0.0	 5	    1.00000	    0.00000	 69.0	 5	    1.10000	    0.90000;
	289	 1	 0.0	 0.0	 0.0	 0.0	 5	    1.00000	    0.00000	 69.0	 5	    1.10000	    0.90000;
	290	 1	 10.44	 0.39	 0.0	 0.0	 5	    1.00000	    0.00000	 69.0	 5	    1.10000	    0.90000;
	291	 1	 0.0	 0.0	 0.0	 0.0	 5	    1.00000	    0.00000	 69.0	 5	    1.10000	    0.90000;
	292	 1	 0.0	 0.0	 0.0	 0.0	 5	    1.00000	    0.00000	 69.0	 5	    1.10000	    0.90000;
	293	 1	 287.69	 -9.86	 0.0	 21.2	 5	    1.00000	    0.00000	 230.0	 5	    1.10000	    0.90000;
	294	 1	 0.0	 0.0	 0.0	 0.0	 5	    1.00000	    0.00000	 345.0	 5	    1.10000	    0.90000;
	295	 1	 -0.23	 -7.22	 0.0	 0.0	 5	    1.00000	    0.00000	 69.0	 5	    1.10000	    0.90000;
	296	 2	 185.75	 -14.03	 0.0	 0.0	 5	    1.00000	    0.00000	 345.0	 5	    1.10000	    0.90000;
	297	 1	 5.92	 -3.69	 0.0	 0.0	 5	    1.00000	    0.00000	 69.0	 5	    1.10000	    0.90000;
	298	 1	 5.38	 -2.41	 0.0	 0.0	 5	    1.00000	    0.00000	 69.0	 5	    1.10000	    0.90000;
	299	 1	 6.04	 -2.39	 0.0	 0.0	 5	    1.00000	    0.00000	 69.0	 5	    1.10000	    0.90000;
	300	 1	 1.91	 -0.45	 0.0	 0.0	 5	    1.00000	    0.00000	 69.0	 5	    1.10000	    0.90000;
	301	 1	 0.0	 0.0	 0.0	 0.0	 5	    1.00000	    0.00000	 69.0	 5	    1.10000	    0.90000;
	302	 1	 0.0	 0.0	 0.0	 0.0	 5	    1.00000	    0.00000	 161.0	 5	    1.10000	    0.90000;
	303	 1	 21.46	 -0.2	 0.0	 0.0	 5	    1.00000	    0.00000	 69.0	 5	    1.10000	    0.90000;
	304	 1	 6.9	 -5.03	 0.0	 0.0	 5	    1.00000	    0.00000	 69.0	 5	    1.10000	    0.90000;
	305	 1	 -0.03	 0.48	 0.0	 0.0	 5	    1.00000	    0.00000	 69.0	 5	    1.10000	    0.90000;
	306	 1	 3.13	 -0.67	 0.0	 0.0	 5	    1.00000	    0.00000	 69.0	 5	    1.10000	    0.90000;
	307	 1	 7.6	 4.63	 0.0	 0.0	 5	    1.00000	    0.00000	 69.0	 5	    1.10000	    0.90000;
	308	 1	 3.69	 -1.35	 0.0	 0.0	 5	    1.00000	    0.00000	 69.0	 5	    1.10000	    0.90000;
	309	 2	 0.0	 0.0	 0.0	 0.0	 5	    1.00000	    0.00000	 161.0	 5	    1.10000	    0.90000;
	310	 1	 0.0	 0.0	 0.0	 0.0	 5	    1.00000	    0.00000	 161.0	 5	    1.10000	    0.90000;
	311	 1	 0.0	 0.0	 0.0	 0.0	 5	    1.00000	    0.00000	 161.0	 5	    1.10000	    0.90000;
	312	 1	 0.0	 0.0	 0.0	 0.0	 5	    1.00000	    0.00000	 69.0	 5	    1.10000	    0.90000;
	313	 1	 8.42	 5.12	 0.0	 10.0	 5	    1.00000	    0.00000	 69.0	 5	    1.10000	    0.90000;
	314	 1	 1.57	 0.05	 0.0	 0.0	 5	    1.00000	    0.00000	 69.0	 5	    1.10000	    0.90000;
	315	 2	 0.0	 0.0	 0.0	 0.0	 5	    1.00000	    0.00000	 13.8	 5	    1.10000	    0.90000;
	316	 1	 3.7	 -1.33	 0.0	 0.0	 5	    1.00000	    0.00000	 69.0	 5	    1.10000	    0.90000;
	317	 1	 4.48	 -1.83	 0.0	 0.0	 5	    1.00000	    0.00000	 69.0	 5	    1.10000	    0.90000;
	318	 1	 7.04	 -0.67	 0.0	 0.0	 5	    1.00000	    0.00000	 69.0	 5	    1.10000	    0.90000;
	319	 1	 10.28	 0.39	 0.0	 0.0	 5	    1.00000	    0.00000	 69.0	 5	    1.10000	    0.90000;