%%%%%%%%%%%%%%%%%%%%%%%%%%%%%%%%%%%%%%%%%%%%%%%%%%%%%%%%%%%%%%%%%%%%%%%%%%%
%%%%                                                                  %%%%%
%%%%    IEEE PES Power Grid Library - Optimal Power Flow - v23.07     %%%%%
%%%%          (https://github.com/power-grid-lib/pglib-opf)           %%%%%
%%%%             Benchmark Group - Small Angle Difference             %%%%%
%%%%                         23 - July - 2023                         %%%%%
%%%%                                                                  %%%%%
%%%%%%%%%%%%%%%%%%%%%%%%%%%%%%%%%%%%%%%%%%%%%%%%%%%%%%%%%%%%%%%%%%%%%%%%%%%
function mpc = pglib_opf_case200_activ__sad
mpc.version = '2';
mpc.baseMVA = 100.0;

%% bus data
%	bus_i	type	Pd	Qd	Gs	Bs	area	Vm	Va	baseKV	zone	Vmax	Vmin
mpc.bus = [
	1	 1	 0.0	 0.0	 0.0	 0.0	 1	    1.00000	    0.00000	 115.0	 2	    1.10000	    0.90000;
	2	 1	 7.39	 2.1	 0.0	 0.0	 1	    1.00000	    0.00000	 115.0	 2	    1.10000	    0.90000;
	3	 1	 0.0	 0.0	 0.0	 0.0	 1	    1.00000	    0.00000	 115.0	 4	    1.10000	    0.90000;
	4	 1	 1.7	 0.48	 0.0	 0.0	 1	    1.00000	    0.00000	 115.0	 4	    1.10000	    0.90000;
	5	 1	 0.0	 0.0	 0.0	 0.0	 1	    1.00000	    0.00000	 115.0	 6	    1.10000	    0.90000;
	6	 1	 7.95	 2.26	 0.0	 0.0	 1	    1.00000	    0.00000	 115.0	 6	    1.10000	    0.90000;
	7	 1	 0.0	 0.0	 0.0	 0.0	 1	    1.00000	    0.00000	 115.0	 2	    1.10000	    0.90000;
	8	 1	 23.74	 6.77	 0.0	 0.0	 1	    1.00000	    0.00000	 115.0	 2	    1.10000	    0.90000;
	9	 1	 0.0	 0.0	 0.0	 0.0	 1	    1.00000	    0.00000	 115.0	 2	    1.10000	    0.90000;
	10	 1	 42.68	 12.16	 0.0	 0.0	 1	    1.00000	    0.00000	 115.0	 2	    1.10000	    0.90000;
	11	 1	 0.0	 0.0	 0.0	 0.0	 1	    1.00000	    0.00000	 115.0	 4	    1.10000	    0.90000;
	12	 1	 0.3	 0.09	 0.0	 0.0	 1	    1.00000	    0.00000	 115.0	 4	    1.10000	    0.90000;
	13	 1	 2.52	 0.72	 0.0	 0.0	 1	    1.00000	    0.00000	 115.0	 4	    1.10000	    0.90000;
	14	 1	 0.0	 0.0	 0.0	 0.0	 1	    1.00000	    0.00000	 230.0	 4	    1.10000	    0.90000;
	15	 1	 0.0	 0.0	 0.0	 30.0	 1	    1.00000	    0.00000	 115.0	 4	    1.10000	    0.90000;
	16	 1	 44.76	 12.76	 0.0	 0.0	 1	    1.00000	    0.00000	 115.0	 4	    1.10000	    0.90000;
	17	 1	 0.0	 0.0	 0.0	 0.0	 1	    1.00000	    0.00000	 115.0	 4	    1.10000	    0.90000;
	18	 1	 0.71	 0.2	 0.0	 0.0	 1	    1.00000	    0.00000	 115.0	 4	    1.10000	    0.90000;
	19	 1	 0.77	 0.22	 0.0	 0.0	 1	    1.00000	    0.00000	 115.0	 4	    1.10000	    0.90000;
	20	 1	 1.13	 0.32	 0.0	 0.0	 1	    1.00000	    0.00000	 115.0	 4	    1.10000	    0.90000;
	21	 1	 4.61	 1.31	 0.0	 0.0	 1	    1.00000	    0.00000	 115.0	 4	    1.10000	    0.90000;
	22	 1	 0.0	 0.0	 0.0	 0.0	 1	    1.00000	    0.00000	 115.0	 4	    1.10000	    0.90000;
	23	 1	 1.41	 0.4	 0.0	 0.0	 1	    1.00000	    0.00000	 115.0	 4	    1.10000	    0.90000;
	24	 1	 2.4	 0.68	 0.0	 0.0	 1	    1.00000	    0.00000	 115.0	 4	    1.10000	    0.90000;
	25	 1	 0.0	 0.0	 0.0	 0.0	 1	    1.00000	    0.00000	 115.0	 6	    1.10000	    0.90000;
	26	 1	 1.35	 0.39	 0.0	 0.0	 1	    1.00000	    0.00000	 115.0	 6	    1.10000	    0.90000;
	27	 1	 0.0	 0.0	 0.0	 0.0	 1	    1.00000	    0.00000	 115.0	 4	    1.10000	    0.90000;
	28	 1	 2.33	 0.67	 0.0	 0.0	 1	    1.00000	    0.00000	 115.0	 4	    1.10000	    0.90000;
	29	 1	 0.0	 0.0	 0.0	 0.0	 1	    1.00000	    0.00000	 115.0	 2	    1.10000	    0.90000;
	30	 1	 59.09	 16.84	 0.0	 0.0	 1	    1.00000	    0.00000	 115.0	 2	    1.10000	    0.90000;
	31	 1	 0.0	 0.0	 0.0	 0.0	 1	    1.00000	    0.00000	 115.0	 7	    1.10000	    0.90000;
	32	 1	 0.51	 0.15	 0.0	 0.0	 1	    1.00000	    0.00000	 115.0	 7	    1.10000	    0.90000;
	33	 1	 6.44	 1.84	 0.0	 0.0	 1	    1.00000	    0.00000	 115.0	 7	    1.10000	    0.90000;
	34	 1	 0.0	 0.0	 0.0	 0.0	 1	    1.00000	    0.00000	 115.0	 4	    1.10000	    0.90000;
	35	 1	 20.76	 5.92	 0.0	 0.0	 1	    1.00000	    0.00000	 115.0	 4	    1.10000	    0.90000;
	36	 1	 0.0	 0.0	 0.0	 0.0	 1	    1.00000	    0.00000	 115.0	 7	    1.10000	    0.90000;
	37	 1	 3.57	 1.02	 0.0	 0.0	 1	    1.00000	    0.00000	 115.0	 7	    1.10000	    0.90000;
	38	 1	 29.81	 8.5	 0.0	 0.0	 1	    1.00000	    0.00000	 115.0	 7	    1.10000	    0.90000;
	39	 1	 7.41	 2.11	 0.0	 0.0	 1	    1.00000	    0.00000	 115.0	 4	    1.10000	    0.90000;
	40	 1	 2.04	 0.58	 0.0	 0.0	 1	    1.00000	    0.00000	 115.0	 4	    1.10000	    0.90000;
	41	 1	 38.34	 10.93	 0.0	 0.0	 1	    1.00000	    0.00000	 115.0	 5	    1.10000	    0.90000;
	42	 1	 10.62	 3.03	 0.0	 0.0	 1	    1.00000	    0.00000	 115.0	 4	    1.10000	    0.90000;
	43	 1	 2.09	 0.59	 0.0	 0.0	 1	    1.00000	    0.00000	 115.0	 2	    1.10000	    0.90000;
	44	 1	 4.15	 1.18	 0.0	 0.0	 1	    1.00000	    0.00000	 115.0	 4	    1.10000	    0.90000;
	45	 1	 0.0	 0.0	 0.0	 0.0	 1	    1.00000	    0.00000	 230.0	 7	    1.10000	    0.90000;
	46	 1	 6.34	 1.81	 0.0	 0.0	 1	    1.00000	    0.00000	 115.0	 7	    1.10000	    0.90000;
	47	 1	 1.54	 0.44	 0.0	 0.0	 1	    1.00000	    0.00000	 115.0	 4	    1.10000	    0.90000;
	48	 1	 1.82	 0.52	 0.0	 0.0	 1	    1.00000	    0.00000	 115.0	 6	    1.10000	    0.90000;
	49	 2	 0.0	 0.0	 0.0	 0.0	 1	    1.00000	    0.00000	 13.8	 6	    1.10000	    0.90000;
	50	 2	 0.0	 0.0	 0.0	 0.0	 1	    1.00000	    0.00000	 13.8	 6	    1.10000	    0.90000;
	51	 2	 0.0	 0.0	 0.0	 0.0	 1	    1.00000	    0.00000	 13.8	 6	    1.10000	    0.90000;
	52	 2	 0.0	 0.0	 0.0	 0.0	 1	    1.00000	    0.00000	 13.8	 6	    1.10000	    0.90000;
	53	 2	 0.0	 0.0	 0.0	 0.0	 1	    1.00000	    0.00000	 13.8	 6	    1.10000	    0.90000;
	54	 1	 2.66	 0.76	 0.0	 0.0	 1	    1.00000	    0.00000	 115.0	 4	    1.10000	    0.90000;
	55	 1	 0.0	 0.0	 0.0	 0.0	 1	    1.00000	    0.00000	 230.0	 7	    1.10000	    0.90000;
	56	 1	 1.31	 0.37	 0.0	 0.0	 1	    1.00000	    0.00000	 115.0	 7	    1.10000	    0.90000;
	57	 1	 2.82	 0.8	 0.0	 0.0	 1	    1.00000	    0.00000	 115.0	 4	    1.10000	    0.90000;
	58	 1	 4.23	 1.21	 0.0	 0.0	 1	    1.00000	    0.00000	 115.0	 7	    1.10000	    0.90000;
	59	 1	 4.73	 1.35	 0.0	 0.0	 1	    1.00000	    0.00000	 115.0	 2	    1.10000	    0.90000;
	60	 1	 3.8	 1.08	 0.0	 0.0	 1	    1.00000	    0.00000	 115.0	 2	    1.10000	    0.90000;
	61	 1	 20.55	 5.86	 0.0	 0.0	 1	    1.00000	    0.00000	 115.0	 7	    1.10000	    0.90000;
	62	 1	 21.41	 6.1	 0.0	 0.0	 1	    1.00000	    0.00000	 115.0	 4	    1.10000	    0.90000;
	63	 1	 7.98	 2.27	 0.0	 0.0	 1	    1.00000	    0.00000	 115.0	 4	    1.10000	    0.90000;
	64	 1	 0.0	 0.0	 0.0	 0.0	 1	    1.00000	    0.00000	 115.0	 6	    1.10000	    0.90000;
	65	 2	 0.0	 0.0	 0.0	 0.0	 1	    1.00000	    0.00000	 13.8	 6	    1.10000	    0.90000;
	66	 1	 0.0	 0.0	 0.0	 0.0	 1	    1.00000	    0.00000	 115.0	 4	    1.10000	    0.90000;
	67	 2	 0.0	 0.0	 0.0	 0.0	 1	    1.00000	    0.00000	 13.8	 4	    1.10000	    0.90000;
	68	 2	 0.0	 0.0	 0.0	 0.0	 1	    1.00000	    0.00000	 13.8	 4	    1.10000	    0.90000;
	69	 2	 0.0	 0.0	 0.0	 0.0	 1	    1.00000	    0.00000	 13.8	 4	    1.10000	    0.90000;
	70	 2	 0.0	 0.0	 0.0	 0.0	 1	    1.00000	    0.00000	 13.8	 4	    1.10000	    0.90000;
	71	 2	 0.0	 0.0	 0.0	 0.0	 1	    1.00000	    0.00000	 13.8	 4	    1.10000	    0.90000;
	72	 2	 0.0	 0.0	 0.0	 0.0	 1	    1.00000	    0.00000	 13.8	 4	    1.10000	    0.90000;
	73	 2	 0.0	 0.0	 0.0	 0.0	 1	    1.00000	    0.00000	 13.8	 4	    1.10000	    0.90000;
	74	 1	 18.76	 5.35	 0.0	 0.0	 1	    1.00000	    0.00000	 115.0	 6	    1.10000	    0.90000;
	75	 1	 3.6	 1.03	 0.0	 0.0	 1	    1.00000	    0.00000	 115.0	 2	    1.10000	    0.90000;
	76	 2	 0.0	 0.0	 0.0	 0.0	 1	    1.00000	    0.00000	 13.8	 2	    1.10000	    0.90000;
	77	 2	 0.0	 0.0	 0.0	 0.0	 1	    1.00000	    0.00000	 13.8	 2	    1.10000	    0.90000;
	78	 2	 0.0	 0.0	 0.0	 0.0	 1	    1.00000	    0.00000	 13.8	 2	    1.10000	    0.90000;
	79	 2	 0.0	 0.0	 0.0	 0.0	 1	    1.00000	    0.00000	 13.8	 2	    1.10000	    0.90000;
	80	 1	 1.48	 0.42	 0.0	 0.0	 1	    1.00000	    0.00000	 115.0	 5	    1.10000	    0.90000;
	81	 1	 0.0	 0.0	 0.0	 0.0	 1	    1.00000	    0.00000	 230.0	 6	    1.10000	    0.90000;
	82	 1	 7.6	 2.17	 0.0	 0.0	 1	    1.00000	    0.00000	 115.0	 6	    1.10000	    0.90000;
	83	 1	 3.14	 0.89	 0.0	 0.0	 1	    1.00000	    0.00000	 115.0	 7	    1.10000	    0.90000;
	84	 1	 3.75	 1.07	 0.0	 0.0	 1	    1.00000	    0.00000	 115.0	 2	    1.10000	    0.90000;
	85	 1	 4.83	 1.38	 0.0	 0.0	 1	    1.00000	    0.00000	 115.0	 4	    1.10000	    0.90000;
	86	 1	 8.25	 2.35	 0.0	 0.0	 1	    1.00000	    0.00000	 115.0	 2	    1.10000	    0.90000;
	87	 1	 0.0	 0.0	 0.0	 0.0	 1	    1.00000	    0.00000	 230.0	 3	    1.10000	    0.90000;
	88	 1	 49.34	 14.06	 0.0	 0.0	 1	    1.00000	    0.00000	 115.0	 3	    1.10000	    0.90000;
	89	 1	 62.85	 17.91	 0.0	 0.0	 1	    1.00000	    0.00000	 115.0	 7	    1.10000	    0.90000;
	90	 2	 0.0	 0.0	 0.0	 0.0	 1	    1.00000	    0.00000	 13.8	 7	    1.10000	    0.90000;
	91	 2	 0.0	 0.0	 0.0	 0.0	 1	    1.00000	    0.00000	 13.8	 7	    1.10000	    0.90000;
	92	 2	 0.0	 0.0	 0.0	 0.0	 1	    1.00000	    0.00000	 13.8	 7	    1.10000	    0.90000;
	93	 1	 3.06	 0.87	 0.0	 0.0	 1	    1.00000	    0.00000	 115.0	 4	    1.10000	    0.90000;
	94	 2	 0.0	 0.0	 0.0	 0.0	 1	    1.00000	    0.00000	 13.8	 4	    1.10000	    0.90000;
	95	 1	 3.0	 0.85	 0.0	 30.0	 1	    1.00000	    0.00000	 115.0	 7	    1.10000	    0.90000;
	96	 1	 2.96	 0.84	 0.0	 0.0	 1	    1.00000	    0.00000	 115.0	 7	    1.10000	    0.90000;
	97	 1	 7.33	 2.09	 0.0	 0.0	 1	    1.00000	    0.00000	 115.0	 2	    1.10000	    0.90000;
	98	 1	 0.0	 0.0	 0.0	 0.0	 1	    1.00000	    0.00000	 230.0	 2	    1.10000	    0.90000;
	99	 1	 12.17	 3.47	 0.0	 0.0	 1	    1.00000	    0.00000	 115.0	 2	    1.10000	    0.90000;
	100	 1	 37.39	 10.66	 0.0	 80.0	 1	    1.00000	    0.00000	 115.0	 5	    1.10000	    0.90000;
	101	 1	 0.52	 0.15	 0.0	 0.0	 1	    1.00000	    0.00000	 115.0	 2	    1.10000	    0.90000;
	102	 1	 0.0	 0.0	 0.0	 0.0	 1	    1.00000	    0.00000	 230.0	 7	    1.10000	    0.90000;
	103	 1	 0.0	 0.0	 0.0	 0.0	 1	    1.00000	    0.00000	 115.0	 7	    1.10000	    0.90000;
	104	 2	 0.0	 0.0	 0.0	 0.0	 1	    1.00000	    0.00000	 13.8	 7	    1.10000	    0.90000;
	105	 2	 0.0	 0.0	 0.0	 0.0	 1	    1.00000	    0.00000	 13.8	 7	    1.10000	    0.90000;
	106	 1	 2.06	 0.59	 0.0	 0.0	 1	    1.00000	    0.00000	 115.0	 7	    1.10000	    0.90000;
	107	 1	 52.56	 14.98	 0.0	 0.0	 1	    1.00000	    0.00000	 115.0	 7	    1.10000	    0.90000;
	108	 1	 9.42	 2.68	 0.0	 0.0	 1	    1.00000	    0.00000	 115.0	 2	    1.10000	    0.90000;
	109	 1	 5.16	 1.47	 0.0	 0.0	 1	    1.00000	    0.00000	 115.0	 4	    1.10000	    0.90000;
	110	 1	 10.86	 3.09	 0.0	 0.0	 1	    1.00000	    0.00000	 115.0	 2	    1.10000	    0.90000;
	111	 1	 8.82	 2.51	 0.0	 0.0	 1	    1.00000	    0.00000	 115.0	 5	    1.10000	    0.90000;
	112	 1	 0.0	 0.0	 0.0	 0.0	 1	    1.00000	    0.00000	 230.0	 7	    1.10000	    0.90000;
	113	 1	 0.0	 0.0	 0.0	 0.0	 1	    1.00000	    0.00000	 115.0	 7	    1.10000	    0.90000;
	114	 2	 0.0	 0.0	 0.0	 0.0	 1	    1.00000	    0.00000	 13.8	 7	    1.10000	    0.90000;
	115	 2	 0.0	 0.0	 0.0	 0.0	 1	    1.00000	    0.00000	 13.8	 7	    1.10000	    0.90000;
	116	 1	 0.0	 0.0	 0.0	 0.0	 1	    1.00000	    0.00000	 230.0	 2	    1.10000	    0.90000;
	117	 1	 34.08	 9.71	 0.0	 0.0	 1	    1.00000	    0.00000	 115.0	 2	    1.10000	    0.90000;
	118	 1	 3.94	 1.12	 0.0	 0.0	 1	    1.00000	    0.00000	 115.0	 2	    1.10000	    0.90000;
	119	 1	 17.55	 5.0	 0.0	 0.0	 1	    1.00000	    0.00000	 115.0	 2	    1.10000	    0.90000;
	120	 1	 1.8	 0.51	 0.0	 0.0	 1	    1.00000	    0.00000	 115.0	 4	    1.10000	    0.90000;
	121	 1	 0.0	 0.0	 0.0	 0.0	 1	    1.00000	    0.00000	 230.0	 7	    1.10000	    0.90000;
	122	 1	 15.44	 4.4	 0.0	 0.0	 1	    1.00000	    0.00000	 115.0	 7	    1.10000	    0.90000;
	123	 1	 0.0	 0.0	 0.0	 0.0	 1	    1.00000	    0.00000	 230.0	 2	    1.10000	    0.90000;
	124	 1	 0.0	 0.0	 0.0	 0.0	 1	    1.00000	    0.00000	 115.0	 2	    1.10000	    0.90000;
	125	 2	 0.0	 0.0	 0.0	 0.0	 1	    1.00000	    0.00000	 13.8	 2	    1.10000	    0.90000;
	126	 2	 0.0	 0.0	 0.0	 0.0	 1	    1.00000	    0.00000	 13.8	 2	    1.10000	    0.90000;
	127	 2	 0.0	 0.0	 0.0	 0.0	 1	    1.00000	    0.00000	 13.8	 2	    1.10000	    0.90000;
	128	 1	 0.0	 0.0	 0.0	 0.0	 1	    1.00000	    0.00000	 230.0	 7	    1.10000	    0.90000;
	129	 1	 77.24	 22.01	 0.0	 0.0	 1	    1.00000	    0.00000	 115.0	 7	    1.10000	    0.90000;
	130	 1	 4.4	 1.25	 0.0	 0.0	 1	    1.00000	    0.00000	 115.0	 7	    1.10000	    0.90000;
	131	 1	 30.25	 8.62	 0.0	 0.0	 1	    1.00000	    0.00000	 115.0	 2	    1.10000	    0.90000;
	132	 1	 26.96	 7.68	 0.0	 0.0	 1	    1.00000	    0.00000	 115.0	 2	    1.10000	    0.90000;
	133	 1	 0.0	 0.0	 0.0	 0.0	 1	    1.00000	    0.00000	 230.0	 2	    1.10000	    0.90000;
	134	 1	 0.0	 0.0	 0.0	 0.0	 1	    1.00000	    0.00000	 115.0	 2	    1.10000	    0.90000;
	135	 2	 0.0	 0.0	 0.0	 0.0	 1	    1.00000	    0.00000	 13.8	 2	    1.10000	    0.90000;
	136	 2	 0.0	 0.0	 0.0	 0.0	 1	    1.00000	    0.00000	 13.8	 2	    1.10000	    0.90000;
	137	 1	 1.16	 0.33	 0.0	 0.0	 1	    1.00000	    0.00000	 115.0	 4	    1.10000	    0.90000;
	138	 1	 2.09	 0.6	 0.0	 0.0	 1	    1.00000	    0.00000	 115.0	 6	    1.10000	    0.90000;
	139	 1	 6.84	 1.95	 0.0	 0.0	 1	    1.00000	    0.00000	 115.0	 2	    1.10000	    0.90000;
	140	 1	 8.21	 2.34	 0.0	 0.0	 1	    1.00000	    0.00000	 115.0	 2	    1.10000	    0.90000;
	141	 1	 1.42	 0.41	 0.0	 0.0	 1	    1.00000	    0.00000	 115.0	 2	    1.10000	    0.90000;
	142	 1	 37.26	 10.62	 0.0	 0.0	 1	    1.00000	    0.00000	 115.0	 2	    1.10000	    0.90000;
	143	 1	 26.78	 7.63	 0.0	 0.0	 1	    1.00000	    0.00000	 115.0	 5	    1.10000	    0.90000;
	144	 1	 9.05	 2.58	 0.0	 0.0	 1	    1.00000	    0.00000	 115.0	 2	    1.10000	    0.90000;
	145	 1	 17.54	 5.0	 0.0	 0.0	 1	    1.00000	    0.00000	 115.0	 3	    1.10000	    0.90000;
	146	 1	 0.0	 0.0	 0.0	 0.0	 1	    1.00000	    0.00000	 115.0	 7	    1.10000	    0.90000;
	147	 2	 0.0	 0.0	 0.0	 0.0	 1	    1.00000	    0.00000	 13.8	 7	    1.10000	    0.90000;
	148	 1	 32.02	 9.13	 0.0	 0.0	 1	    1.00000	    0.00000	 115.0	 2	    1.10000	    0.90000;
	149	 1	 0.0	 0.0	 0.0	 0.0	 1	    1.00000	    0.00000	 230.0	 3	    1.10000	    0.90000;
	150	 1	 0.0	 0.0	 0.0	 0.0	 1	    1.00000	    0.00000	 115.0	 3	    1.10000	    0.90000;
	151	 2	 0.0	 0.0	 0.0	 0.0	 1	    1.00000	    0.00000	 13.8	 3	    1.10000	    0.90000;
	152	 2	 0.0	 0.0	 0.0	 0.0	 1	    1.00000	    0.00000	 13.8	 3	    1.10000	    0.90000;
	153	 2	 0.0	 0.0	 0.0	 0.0	 1	    1.00000	    0.00000	 13.8	 3	    1.10000	    0.90000;
	154	 2	 0.0	 0.0	 0.0	 0.0	 1	    1.00000	    0.00000	 13.8	 3	    1.10000	    0.90000;
	155	 2	 0.0	 0.0	 0.0	 0.0	 1	    1.00000	    0.00000	 13.8	 3	    1.10000	    0.90000;
	156	 1	 0.0	 0.0	 0.0	 0.0	 1	    1.00000	    0.00000	 230.0	 2	    1.10000	    0.90000;
	157	 1	 14.76	 4.21	 0.0	 0.0	 1	    1.00000	    0.00000	 115.0	 2	    1.10000	    0.90000;
	158	 1	 8.97	 2.56	 0.0	 0.0	 1	    1.00000	    0.00000	 115.0	 4	    1.10000	    0.90000;
	159	 1	 1.39	 0.4	 0.0	 0.0	 1	    1.00000	    0.00000	 115.0	 4	    1.10000	    0.90000;
	160	 1	 0.0	 0.0	 0.0	 0.0	 1	    1.00000	    0.00000	 115.0	 4	    1.10000	    0.90000;
	161	 2	 0.0	 0.0	 0.0	 0.0	 1	    1.00000	    0.00000	 13.8	 4	    1.10000	    0.90000;
	162	 1	 1.45	 0.41	 0.0	 0.0	 1	    1.00000	    0.00000	 115.0	 2	    1.10000	    0.90000;
	163	 1	 45.8	 13.05	 0.0	 0.0	 1	    1.00000	    0.00000	 115.0	 5	    1.10000	    0.90000;
	164	 2	 0.0	 0.0	 0.0	 0.0	 1	    1.00000	    0.00000	 13.8	 5	    1.10000	    0.90000;
	165	 2	 0.0	 0.0	 0.0	 0.0	 1	    1.00000	    0.00000	 13.8	 5	    1.10000	    0.90000;
	166	 2	 0.0	 0.0	 0.0	 0.0	 1	    1.00000	    0.00000	 13.8	 5	    1.10000	    0.90000;
	167	 2	 0.0	 0.0	 0.0	 0.0	 1	    1.00000	    0.00000	 13.8	 5	    1.10000	    0.90000;
	168	 2	 0.0	 0.0	 0.0	 0.0	 1	    1.00000	    0.00000	 13.8	 5	    1.10000	    0.90000;
	169	 2	 0.0	 0.0	 0.0	 0.0	 1	    1.00000	    0.00000	 13.8	 5	    1.10000	    0.90000;
	170	 2	 0.0	 0.0	 0.0	 0.0	 1	    1.00000	    0.00000	 13.8	 5	    1.10000	    0.90000;
	171	 1	 7.94	 2.26	 0.0	 0.0	 1	    1.00000	    0.00000	 115.0	 6	    1.10000	    0.90000;
	172	 1	 5.38	 1.53	 0.0	 0.0	 1	    1.00000	    0.00000	 115.0	 5	    1.10000	    0.90000;
	173	 1	 8.71	 2.48	 0.0	 0.0	 1	    1.00000	    0.00000	 115.0	 5	    1.10000	    0.90000;
	174	 1	 2.77	 0.79	 0.0	 0.0	 1	    1.00000	    0.00000	 115.0	 5	    1.10000	    0.90000;
	175	 1	 7.31	 2.08	 0.0	 0.0	 1	    1.00000	    0.00000	 115.0	 5	    1.10000	    0.90000;
	176	 1	 19.01	 5.42	 0.0	 0.0	 1	    1.00000	    0.00000	 115.0	 3	    1.10000	    0.90000;
	177	 1	 11.29	 3.22	 0.0	 0.0	 1	    1.00000	    0.00000	 115.0	 7	    1.10000	    0.90000;
	178	 1	 0.0	 0.0	 0.0	 0.0	 1	    1.00000	    0.00000	 230.0	 5	    1.10000	    0.90000;
	179	 1	 23.61	 6.73	 0.0	 0.0	 1	    1.00000	    0.00000	 115.0	 5	    1.10000	    0.90000;
	180	 1	 7.74	 2.21	 0.0	 0.0	 1	    1.00000	    0.00000	 115.0	 5	    1.10000	    0.90000;
	181	 1	 47.98	 13.67	 0.0	 0.0	 1	    1.00000	    0.00000	 115.0	 4	    1.10000	    0.90000;
	182	 2	 0.0	 0.0	 0.0	 0.0	 1	    1.00000	    0.00000	 13.8	 4	    1.10000	    0.90000;
	183	 2	 0.0	 0.0	 0.0	 0.0	 1	    1.00000	    0.00000	 13.8	 4	    1.10000	    0.90000;
	184	 1	 10.69	 3.05	 0.0	 0.0	 1	    1.00000	    0.00000	 115.0	 5	    1.10000	    0.90000;
	185	 1	 10.79	 3.07	 0.0	 0.0	 1	    1.00000	    0.00000	 115.0	 3	    1.10000	    0.90000;
	186	 1	 2.1	 0.6	 0.0	 0.0	 1	    1.00000	    0.00000	 115.0	 2	    1.10000	    0.90000;
	187	 1	 0.0	 0.0	 0.0	 0.0	 1	    1.00000	    0.00000	 230.0	 7	    1.10000	    0.90000;
	188	 1	 0.0	 0.0	 0.0	 0.0	 1	    1.00000	    0.00000	 115.0	 7	    1.10000	    0.90000;
	189	 3	 0.0	 0.0	 0.0	 0.0	 1	    1.00000	    0.00000	 13.8	 7	    1.10000	    0.90000;
	190	 1	 16.79	 4.78	 0.0	 0.0	 1	    1.00000	    0.00000	 115.0	 6	    1.10000	    0.90000;
	191	 1	 7.23	 2.06	 0.0	 0.0	 1	    1.00000	    0.00000	 115.0	 5	    1.10000	    0.90000;
	192	 1	 52.74	 15.03	 0.0	 0.0	 1	    1.00000	    0.00000	 115.0	 7	    1.10000	    0.90000;
	193	 1	 21.99	 6.27	 0.0	 0.0	 1	    1.00000	    0.00000	 115.0	 2	    1.10000	    0.90000;
	194	 1	 37.57	 10.71	 0.0	 50.0	 1	    1.00000	    0.00000	 115.0	 3	    1.10000	    0.90000;
	195	 1	 0.0	 0.0	 0.0	 0.0	 1	    1.00000	    0.00000	 115.0	 6	    1.10000	    0.90000;
	196	 2	 0.0	 0.0	 0.0	 0.0	 1	    1.00000	    0.00000	 13.8	 6	    1.10000	    0.90000;
	197	 2	 0.0	 0.0	 0.0	 0.0	 1	    1.00000	    0.00000	 13.8	 6	    1.10000	    0.90000;
	198	 1	 5.37	 1.53	 0.0	 0.0	 1	    1.00000	    0.00000	 115.0	 2	    1.10000	    0.90000;
	199	 1	 4.26	 1.21	 0.0	 0.0	 1	    1.00000	    0.00000	 115.0	 6	    1.10000	    0.90000;
	200	 1	 9.34	 2.66	 0.0	 0.0	 1	    1.00000	    0.00000	 115.0	 4	    1.10000	    0.90000;
];

%% generator data
%	bus	Pg	Qg	Qmax	Qmin	Vg	mBase	status	Pmax	Pmin
mpc.gen = [
	49	 2.945	 0.78	 2.11	 -0.55	 1.0	 5.44	 1	 4.53	 1.36;
	50	 2.945	 0.78	 2.11	 -0.55	 1.0	 5.44	 1	 4.53	 1.36;
	51	 2.945	 0.78	 2.11	 -0.55	 1.0	 5.44	 1	 4.53	 1.36;
	52	 2.945	 0.78	 2.11	 -0.55	 1.0	 5.44	 1	 4.53	 1.36;
	53	 5.895	 1.56	 4.23	 -1.11	 1.0	 10.88	 1	 9.07	 2.72;
	65	 86.5	 5.19	 32.04	 -21.66	 1.0	 180.48	 1	 86.5	 86.5;
	67	 3.055	 0.81	 2.19	 -0.57	 1.0	 5.64	 1	 4.7	 1.41;
	68	 18.15	 4.8	 13.01	 -3.41	 1.0	 33.5	 1	 27.92	 8.38;
	69	 18.15	 4.8	 13.01	 -3.41	 1.0	 33.5	 1	 27.92	 8.38;
	70	 18.15	 4.8	 13.01	 -3.41	 1.0	 33.5	 1	 27.92	 8.38;
	71	 18.15	 4.8	 13.01	 -3.41	 1.0	 33.5	 1	 27.92	 8.38;
	72	 18.15	 4.8	 13.01	 -3.41	 1.0	 33.5	 1	 27.92	 8.38;
	73	 18.15	 4.8	 13.01	 -3.41	 1.0	 33.5	 1	 27.92	 8.38;
	76	 2.6	 0.8	 2.04	 -0.44	 1.0	 4.8	 1	 4.0	 1.2;
	77	 1.56	 0.475	 1.22	 -0.27	 1.0	 2.88	 1	 2.4	 0.72;
	78	 0.0	 0.0	 9.16	 -2.0	 1.0	 21.6	 0	 18.0	 5.4;
	79	 0.0	 0.0	 9.16	 -2.0	 1.0	 21.6	 0	 18.0	 5.4;
	90	 2.08	 0.635	 1.63	 -0.36	 1.0	 3.84	 1	 3.2	 0.96;
	91	 3.25	 1.0	 2.55	 -0.55	 1.0	 6.0	 1	 5.0	 1.5;
	92	 0.0	 0.0	 3.21	 -0.7	 1.0	 7.56	 0	 6.3	 1.89;
	94	 11.7	 3.095	 8.39	 -2.2	 1.0	 21.6	 1	 18.0	 5.4;
	104	 67.6	 3.415	 21.09	 -14.26	 1.0	 118.8	 1	 67.6	 67.6;
	105	 154.8	 6.83	 42.17	 -28.51	 1.0	 237.6	 1	 154.8	 154.8;
	114	 1.4	 0.06	 0.36	 -0.24	 1.0	 2.04	 1	 1.4	 1.4;
	115	 133.5	 5.175	 31.95	 -21.6	 1.0	 180.0	 1	 133.5	 133.5;
	125	 84.535	 22.365	 60.6	 -15.87	 1.0	 156.06	 1	 130.05	 39.02;
	126	 84.535	 22.365	 60.6	 -15.87	 1.0	 156.06	 1	 130.05	 39.02;
	127	 84.535	 22.365	 60.6	 -15.87	 1.0	 156.06	 1	 130.05	 39.02;
	135	 290.16	 76.78	 208.02	 -54.46	 1.0	 535.68	 1	 446.4	 133.92;
	136	 290.16	 76.78	 208.02	 -54.46	 1.0	 535.68	 1	 446.4	 133.92;
	147	 92.4	 3.47	 21.41	 -14.47	 1.0	 120.6	 1	 92.4	 92.4;
	151	 3.51	 0.93	 2.52	 -0.66	 1.0	 6.48	 1	 5.4	 1.62;
	152	 50.195	 13.285	 35.99	 -9.42	 1.0	 92.67	 1	 77.22	 23.17;
	153	 50.195	 13.285	 35.99	 -9.42	 1.0	 92.67	 1	 77.22	 23.17;
	154	 50.195	 13.285	 35.99	 -9.42	 1.0	 92.67	 1	 77.22	 23.17;
	155	 50.195	 13.285	 35.99	 -9.42	 1.0	 92.67	 1	 77.22	 23.17;
	161	 0.0	 0.0	 70.55	 -15.38	 1.0	 166.32	 0	 138.6	 41.58;
	164	 0.0	 0.0	 6.11	 -1.33	 1.0	 14.4	 0	 12.0	 3.6;
	165	 0.0	 0.0	 13.23	 -2.89	 1.0	 31.2	 0	 26.0	 7.8;
	166	 0.0	 0.0	 4.78	 -1.04	 1.0	 11.28	 0	 9.4	 2.82;
	167	 6.11	 1.87	 4.78	 -1.04	 1.0	 11.28	 1	 9.4	 2.82;
	168	 0.0	 0.0	 4.78	 -1.04	 1.0	 11.28	 0	 9.4	 2.82;
	169	 0.0	 0.0	 4.78	 -1.04	 1.0	 11.28	 0	 9.4	 2.82;
	170	 6.11	 1.87	 4.78	 -1.04	 1.0	 11.28	 1	 9.4	 2.82;
	182	 11.375	 3.01	 8.16	 -2.14	 1.0	 21.0	 1	 17.5	 5.25;
	183	 17.29	 4.575	 12.4	 -3.25	 1.0	 31.92	 1	 26.6	 7.98;
	189	 369.95	 81.39	 209.45	 -46.67	 1.0	 682.98	 1	 569.15	 170.75;
	196	 0.0	 0.0	 34.36	 -7.49	 1.0	 81.0	 0	 67.5	 20.25;
	197	 0.0	 0.0	 34.36	 -7.49	 1.0	 81.0	 0	 67.5	 20.25;
];

%% generator cost data
%	2	startup	shutdown	n	c(n-1)	...	c0
mpc.gencost = [
	2	 0.0	 0.0	 3	   0.002000	  19.000000	 236.120000;
	2	 0.0	 0.0	 3	   0.002000	  19.000000	 236.120000;
	2	 0.0	 0.0	 3	   0.002000	  19.000000	 236.120000;
	2	 0.0	 0.0	 3	   0.002000	  19.000000	 236.120000;
	2	 0.0	 0.0	 3	   0.002000	  19.000000	 236.240000;
	2	 0.0	 0.0	 3	   0.000000	   0.000000	   0.000000;
	2	 0.0	 0.0	 3	   0.002000	  19.000000	 236.130000;
	2	 0.0	 0.0	 3	   0.002000	  19.000000	 236.740000;
	2	 0.0	 0.0	 3	   0.002000	  19.000000	 236.740000;
	2	 0.0	 0.0	 3	   0.002000	  19.000000	 236.740000;
	2	 0.0	 0.0	 3	   0.002000	  19.000000	 236.740000;
	2	 0.0	 0.0	 3	   0.002000	  19.000000	 236.740000;
	2	 0.0	 0.0	 3	   0.002000	  19.000000	 236.740000;
	2	 0.0	 0.0	 3	   0.002000	  23.157000	 606.000000;
	2	 0.0	 0.0	 3	   0.002000	  23.146000	 603.600000;
	2	 0.0	 0.0	 3	   0.002000	  23.252000	 627.000000;
	2	 0.0	 0.0	 3	   0.002000	  23.252000	 627.000000;
	2	 0.0	 0.0	 3	   0.002000	  23.152000	 604.800000;
	2	 0.0	 0.0	 3	   0.002000	  23.164000	 607.500000;
	2	 0.0	 0.0	 3	   0.002000	  23.173000	 609.450000;
	2	 0.0	 0.0	 3	   0.002000	  19.000000	 236.480000;
	2	 0.0	 0.0	 3	   0.000000	   0.000000	   0.000000;
	2	 0.0	 0.0	 3	   0.000000	   0.000000	   0.000000;
	2	 0.0	 0.0	 3	   0.000000	   0.000000	   0.000000;
	2	 0.0	 0.0	 3	   0.000000	   0.000000	   0.000000;
	2	 0.0	 0.0	 3	   0.002000	  19.000000	 610.140000;
	2	 0.0	 0.0	 3	   0.002000	  19.000000	 610.140000;
	2	 0.0	 0.0	 3	   0.002000	  19.000000	 610.140000;
	2	 0.0	 0.0	 3	   0.002000	  19.000000	 1261.330000;
	2	 0.0	 0.0	 3	   0.002000	  19.000000	 1261.330000;
	2	 0.0	 0.0	 3	   0.000000	   0.000000	   0.000000;
	2	 0.0	 0.0	 3	   0.002000	  19.000000	 236.140000;
	2	 0.0	 0.0	 3	   0.002000	  19.000000	 253.010000;
	2	 0.0	 0.0	 3	   0.002000	  19.000000	 253.010000;
	2	 0.0	 0.0	 3	   0.002000	  19.000000	 253.010000;
	2	 0.0	 0.0	 3	   0.002000	  19.000000	 253.010000;
	2	 0.0	 0.0	 3	   0.002000	  24.070000	 807.900000;
	2	 0.0	 0.0	 3	   0.002000	  23.211000	 618.000000;
	2	 0.0	 0.0	 3	   0.002000	  23.306000	 639.000000;
	2	 0.0	 0.0	 3	   0.002000	  23.194000	 614.100000;
	2	 0.0	 0.0	 3	   0.002000	  23.194000	 614.100000;
	2	 0.0	 0.0	 3	   0.002000	  23.194000	 614.100000;
	2	 0.0	 0.0	 3	   0.002000	  23.194000	 614.100000;
	2	 0.0	 0.0	 3	   0.002000	  23.194000	 614.100000;
	2	 0.0	 0.0	 3	   0.002000	  19.000000	 236.470000;
	2	 0.0	 0.0	 3	   0.002000	  19.000000	 236.710000;
	2	 0.0	 0.0	 3	   0.000000	   6.710000	 1272.130000;
	2	 0.0	 0.0	 3	   0.002000	  23.588000	 701.250000;
	2	 0.0	 0.0	 3	   0.002000	  23.588000	 701.250000;
];

%% branch data
%	fbus	tbus	r	x	b	rateA	rateB	rateC	ratio	angle	status	angmin	angmax
mpc.branch = [
	2	 1	 0.000673	 0.003339	 0.0	 100.0	 100.0	 100.0	 0.0	 0.0	 1	 -4.7125052128	 4.7125052128;
	1	 119	 0.018542	 0.119758	 0.02285	 221.1	 221.1	 221.1	 0.0	 0.0	 1	 -4.7125052128	 4.7125052128;
	124	 1	 0.005615	 0.036268	 0.00692	 221.1	 221.1	 221.1	 0.0	 0.0	 1	 -4.7125052128	 4.7125052128;
	193	 1	 0.004258	 0.027501	 0.00525	 221.1	 221.1	 221.1	 0.0	 0.0	 1	 -4.7125052128	 4.7125052128;
	4	 3	 0.000573	 0.003303	 0.0	 100.0	 100.0	 100.0	 0.0	 0.0	 1	 -4.7125052128	 4.7125052128;
	57	 3	 0.008505	 0.058098	 0.00988	 221.1	 221.1	 221.1	 0.0	 0.0	 1	 -4.7125052128	 4.7125052128;
	3	 137	 0.005889	 0.038035	 0.00726	 221.1	 221.1	 221.1	 0.0	 0.0	 1	 -4.7125052128	 4.7125052128;
	6	 5	 0.000694	 0.003337	 0.0	 100.0	 100.0	 100.0	 0.0	 0.0	 1	 -4.7125052128	 4.7125052128;
	48	 5	 0.006246	 0.043513	 0.00711	 221.1	 221.1	 221.1	 0.0	 0.0	 1	 -4.7125052128	 4.7125052128;
	5	 64	 0.007877	 0.054875	 0.00897	 221.1	 221.1	 221.1	 0.0	 0.0	 1	 -4.7125052128	 4.7125052128;
	8	 7	 0.000634	 0.003189	 0.0	 100.0	 100.0	 100.0	 0.0	 0.0	 1	 -4.7125052128	 4.7125052128;
	7	 86	 0.003756	 0.024259	 0.00463	 221.1	 221.1	 221.1	 0.0	 0.0	 1	 -4.7125052128	 4.7125052128;
	7	 101	 0.003597	 0.023232	 0.00443	 221.1	 221.1	 221.1	 0.0	 0.0	 1	 -4.7125052128	 4.7125052128;
	7	 148	 0.008667	 0.05598	 0.01068	 221.1	 221.1	 221.1	 0.0	 0.0	 1	 -4.7125052128	 4.7125052128;
	10	 9	 0.000585	 0.003967	 0.0	 100.0	 100.0	 100.0	 0.0	 0.0	 1	 -4.7125052128	 4.7125052128;
	9	 124	 0.008069	 0.055123	 0.00938	 221.1	 221.1	 221.1	 0.0	 0.0	 1	 -4.7125052128	 4.7125052128;
	131	 9	 0.004139	 0.026732	 0.0051	 221.1	 221.1	 221.1	 0.0	 0.0	 1	 -4.7125052128	 4.7125052128;
	9	 141	 0.004446	 0.03097	 0.00506	 221.1	 221.1	 221.1	 0.0	 0.0	 1	 -4.7125052128	 4.7125052128;
	9	 193	 0.003695	 0.025244	 0.00429	 221.1	 221.1	 221.1	 0.0	 0.0	 1	 -4.7125052128	 4.7125052128;
	12	 11	 0.000534	 0.003533	 0.0	 100.0	 100.0	 100.0	 0.0	 0.0	 1	 -4.7125052128	 4.7125052128;
	13	 11	 0.000619	 0.003606	 0.0	 100.0	 100.0	 100.0	 0.0	 0.0	 1	 -4.7125052128	 4.7125052128;
	11	 15	 0.010408	 0.06722	 0.01282	 221.1	 221.1	 221.1	 0.0	 0.0	 1	 -4.7125052128	 4.7125052128;
	11	 93	 0.018394	 0.128141	 0.02095	 221.1	 221.1	 221.1	 0.0	 0.0	 1	 -4.7125052128	 4.7125052128;
	158	 11	 0.008519	 0.058199	 0.0099	 221.1	 221.1	 221.1	 0.0	 0.0	 1	 -4.7125052128	 4.7125052128;
	15	 14	 0.000637	 0.027526	 0.0	 300.0	 300.0	 300.0	 1.0	 0.0	 1	 -4.7125052128	 4.7125052128;
	14	 121	 0.007013	 0.050098	 0.09134	 402.36	 402.36	 402.36	 0.0	 0.0	 1	 -4.7125052128	 4.7125052128;
	14	 149	 0.009133	 0.065244	 0.11895	 402.36	 402.36	 402.36	 0.0	 0.0	 1	 -4.7125052128	 4.7125052128;
	16	 15	 0.000553	 0.0032	 0.0	 100.0	 100.0	 100.0	 0.0	 0.0	 1	 -4.7125052128	 4.7125052128;
	18	 17	 0.000503	 0.003926	 0.0	 100.0	 100.0	 100.0	 0.0	 0.0	 1	 -4.7125052128	 4.7125052128;
	19	 17	 0.000514	 0.003079	 0.0	 100.0	 100.0	 100.0	 0.0	 0.0	 1	 -4.7125052128	 4.7125052128;
	20	 17	 0.000623	 0.003339	 0.0	 100.0	 100.0	 100.0	 0.0	 0.0	 1	 -4.7125052128	 4.7125052128;
	21	 17	 0.00062	 0.00394	 0.0	 100.0	 100.0	 100.0	 0.0	 0.0	 1	 -4.7125052128	 4.7125052128;
	109	 17	 0.009789	 0.068198	 0.01115	 221.1	 221.1	 221.1	 0.0	 0.0	 1	 -4.7125052128	 4.7125052128;
	17	 120	 0.010316	 0.070473	 0.01199	 221.1	 221.1	 221.1	 0.0	 0.0	 1	 -4.7125052128	 4.7125052128;
	23	 22	 0.000616	 0.003222	 0.0	 100.0	 100.0	 100.0	 0.0	 0.0	 1	 -4.7125052128	 4.7125052128;
	24	 22	 0.000687	 0.003067	 0.0	 100.0	 100.0	 100.0	 0.0	 0.0	 1	 -4.7125052128	 4.7125052128;
	22	 27	 0.011379	 0.073494	 0.01402	 221.1	 221.1	 221.1	 0.0	 0.0	 1	 -4.7125052128	 4.7125052128;
	158	 22	 0.012701	 0.086769	 0.01476	 221.1	 221.1	 221.1	 0.0	 0.0	 1	 -4.7125052128	 4.7125052128;
	26	 25	 0.00061	 0.003071	 0.0	 100.0	 100.0	 100.0	 0.0	 0.0	 1	 -4.7125052128	 4.7125052128;
	25	 64	 0.007643	 0.053244	 0.0087	 221.1	 221.1	 221.1	 0.0	 0.0	 1	 -4.7125052128	 4.7125052128;
	199	 25	 0.009909	 0.064003	 0.01221	 221.1	 221.1	 221.1	 0.0	 0.0	 1	 -4.7125052128	 4.7125052128;
	28	 27	 0.000587	 0.003964	 0.0	 100.0	 100.0	 100.0	 0.0	 0.0	 1	 -4.7125052128	 4.7125052128;
	27	 93	 0.025172	 0.175362	 0.02867	 221.1	 221.1	 221.1	 0.0	 0.0	 1	 -4.7125052128	 4.7125052128;
	27	 158	 0.020429	 0.131945	 0.02517	 221.1	 221.1	 221.1	 0.0	 0.0	 1	 -4.7125052128	 4.7125052128;
	30	 29	 0.000694	 0.003131	 0.0	 100.0	 100.0	 100.0	 0.0	 0.0	 1	 -4.7125052128	 4.7125052128;
	124	 29	 0.005561	 0.038742	 0.00633	 221.1	 221.1	 221.1	 0.0	 0.0	 1	 -4.7125052128	 4.7125052128;
	29	 140	 0.007895	 0.055004	 0.00899	 221.1	 221.1	 221.1	 0.0	 0.0	 1	 -4.7125052128	 4.7125052128;
	32	 31	 0.000667	 0.003884	 0.0	 100.0	 100.0	 100.0	 0.0	 0.0	 1	 -4.7125052128	 4.7125052128;
	33	 31	 0.000528	 0.003639	 0.0	 100.0	 100.0	 100.0	 0.0	 0.0	 1	 -4.7125052128	 4.7125052128;
	177	 31	 0.008406	 0.05856	 0.00957	 221.1	 221.1	 221.1	 0.0	 0.0	 1	 -4.7125052128	 4.7125052128;
	192	 31	 0.008088	 0.05525	 0.0094	 221.1	 221.1	 221.1	 0.0	 0.0	 1	 -4.7125052128	 4.7125052128;
	35	 34	 0.000575	 0.003674	 0.0	 100.0	 100.0	 100.0	 0.0	 0.0	 1	 -4.7125052128	 4.7125052128;
	34	 54	 0.006268	 0.042819	 0.00729	 221.1	 221.1	 221.1	 0.0	 0.0	 1	 -4.7125052128	 4.7125052128;
	34	 137	 0.006911	 0.044639	 0.00852	 221.1	 221.1	 221.1	 0.0	 0.0	 1	 -4.7125052128	 4.7125052128;