%%%%%%%%%%%%%%%%%%%%%%%%%%%%%%%%%%%%%%%%%%%%%%%%%%%%%%%%%%%%%%%%%%%%%%%%%%%
%%%%                                                                  %%%%%
%%%%    IEEE PES Power Grid Library - Optimal Power Flow - v23.07     %%%%%
%%%%          (https://github.com/power-grid-lib/pglib-opf)           %%%%%
%%%%             Benchmark Group - Small Angle Difference             %%%%%
%%%%                         23 - July - 2023                         %%%%%
%%%%                                                                  %%%%%
%%%%%%%%%%%%%%%%%%%%%%%%%%%%%%%%%%%%%%%%%%%%%%%%%%%%%%%%%%%%%%%%%%%%%%%%%%%
function mpc = pglib_opf_case1803_snem__sad
mpc.version = '2';
mpc.baseMVA = 100.0;

%% bus data
%	bus_i	type	Pd	Qd	Gs	Bs	area	Vm	Va	baseKV	zone	Vmax	Vmin
mpc.bus = [
	1	 1	 0.0	 0.0	 0.0	 0.0	 1	    1.00000	    0.00000	 0.55	 1	    1.10000	    0.90000;
	2	 1	 0.0	 0.0	 0.0	 0.0	 1	    1.00000	    0.00000	 0.55	 1	    1.10000	    0.90000;
	3	 3	 27.2143410097	 22.9900319056	 0.0	 0.0	 1	    1.00000	    0.00000	 23.0	 1	    1.10000	    0.90000;
	4	 2	 35.3055390657	 25.5369557543	 0.0	 0.0	 1	    1.00000	    0.00000	 23.0	 1	    1.10000	    0.90000;
	5	 2	 36.3464705546	 25.4527938493	 0.0	 0.0	 1	    1.00000	    0.00000	 23.0	 1	    1.10000	    0.90000;
	6	 2	 36.1536967607	 25.9520197765	 0.0	 0.0	 1	    1.00000	    0.00000	 23.0	 1	    1.10000	    0.90000;
	7	 1	 0.0	 0.0	 0.0	 0.0	 1	    1.00000	    0.00000	 11.0	 1	    1.10000	    0.90000;
	8	 1	 34.3079817598	 6.89272724684	 0.0	 28.2324585212	 1	    1.00000	    0.00000	 22.0	 1	    1.10000	    0.90000;
	10	 1	 0.0	 0.0	 0.0	 0.0	 1	    1.00000	    0.00000	 11.0	 1	    1.10000	    0.90000;
	11	 1	 0.0	 0.0	 0.0	 0.0	 1	    1.00000	    0.00000	 11.0	 1	    1.10000	    0.90000;
	12	 2	 0.0	 0.0	 0.0	 0.0	 1	    1.00000	    0.00000	 330.0	 1	    1.10000	    0.90000;
	13	 2	 0.0	 0.0	 0.0	 0.0	 1	    1.00000	    0.00000	 0.69	 1	    1.10000	    0.90000;
	14	 2	 0.0	 0.0	 0.0	 0.0	 1	    1.00000	    0.00000	 0.69	 1	    1.10000	    0.90000;
	15	 2	 0.0	 0.0	 0.0	 0.0	 1	    1.00000	    0.00000	 0.69	 1	    1.10000	    0.90000;
	16	 1	 0.567323553624	 0.0	 0.0	 -2.25647719306	 1	    1.00000	    0.00000	 0.69	 1	    1.10000	    0.90000;
	17	 1	 -0.236101171253	 0.0	 0.0	 -3.91829091666	 1	    1.00000	    0.00000	 0.69	 1	    1.10000	    0.90000;
	18	 2	 32.9123161611	 24.7117839583	 0.0	 0.0	 1	    1.00000	    0.00000	 23.0	 1	    1.10000	    0.90000;
	19	 2	 32.7047949976	 24.8641462773	 0.0	 0.0	 1	    1.00000	    0.00000	 23.0	 1	    1.10000	    0.90000;
	20	 2	 32.9377227685	 24.8430852986	 0.0	 0.0	 1	    1.00000	    0.00000	 23.0	 1	    1.10000	    0.90000;
	21	 2	 33.7906400303	 25.0104665893	 0.0	 0.0	 1	    1.00000	    0.00000	 23.0	 1	    1.10000	    0.90000;
	22	 1	 -83.0623847518	 0.0	 0.0	 -11.7381837877	 1	    1.00000	    0.00000	 33.0	 1	    1.10000	    0.90000;
	23	 2	 0.0417559117749	 0.0395732937567	 0.0	 0.0	 1	    1.00000	    0.00000	 16.0	 1	    1.10000	    0.90000;
	24	 2	 0.0	 0.0	 0.0	 0.0	 1	    1.00000	    0.00000	 0.69	 1	    1.10000	    0.90000;
	25	 2	 0.0	 0.0	 0.0	 0.0	 1	    1.00000	    0.00000	 0.69	 1	    1.10000	    0.90000;
	26	 2	 0.0	 -14.6816765622	 0.0	 0.0	 1	    1.00000	    0.00000	 0.69	 1	    1.10000	    0.90000;
	27	 1	 0.0	 0.0	 0.0	 0.0	 1	    1.00000	    0.00000	 132.0	 1	    1.10000	    0.90000;
	28	 2	 0.0	 0.0	 0.0	 0.0	 1	    1.00000	    0.00000	 132.0	 1	    1.10000	    0.90000;
	29	 1	 0.0	 0.0	 0.0	 0.0	 1	    1.00000	    0.00000	 16.0	 1	    1.10000	    0.90000;
	30	 2	 0.0787415696122	 0.0773942161463	 0.0	 0.0	 1	    1.00000	    0.00000	 16.0	 1	    1.10000	    0.90000;
	31	 2	 0.0	 0.0	 0.0	 0.0	 1	    1.00000	    0.00000	 11.0	 1	    1.10000	    0.90000;
	32	 1	 176.733903015	 -4.11325372575	 0.0	 0.0	 1	    1.00000	    0.00000	 33.0	 1	    1.10000	    0.90000;
	33	 1	 -3.33792712396	 0.0	 0.0	 13.0353994753	 1	    1.00000	    0.00000	 11.0	 1	    1.10000	    0.90000;
	34	 2	 18.3415544694	 10.3636909979	 0.0	 0.0	 1	    1.00000	    0.00000	 22.0	 1	    1.10000	    0.90000;
	35	 2	 17.4121562783	 10.8938102149	 0.0	 0.0	 1	    1.00000	    0.00000	 22.0	 1	    1.10000	    0.90000;
	36	 2	 18.5822455404	 10.5566776533	 0.0	 0.0	 1	    1.00000	    0.00000	 22.0	 1	    1.10000	    0.90000;
	37	 2	 0.0943259037152	 0.0874372693778	 0.0	 0.0	 1	    1.00000	    0.00000	 15.4	 1	    1.10000	    0.90000;
	38	 2	 0.0876203157609	 0.0907639987733	 0.0	 0.0	 1	    1.00000	    0.00000	 15.4	 1	    1.10000	    0.90000;
	39	 2	 0.0911105032665	 0.0927051996761	 0.0	 0.0	 1	    1.00000	    0.00000	 15.4	 1	    1.10000	    0.90000;
	40	 2	 0.089493771646	 0.0930797259163	 0.0	 0.0	 1	    1.00000	    0.00000	 15.4	 1	    1.10000	    0.90000;
	41	 2	 0.0919159747737	 0.0946137851933	 0.0	 0.0	 1	    1.00000	    0.00000	 15.4	 1	    1.10000	    0.90000;
	42	 2	 0.0944379383104	 0.0882814010352	 0.0	 0.0	 1	    1.00000	    0.00000	 15.4	 1	    1.10000	    0.90000;
	43	 2	 31.5180404374	 25.9728703916	 0.0	 0.0	 1	    1.00000	    0.00000	 23.0	 1	    1.10000	    0.90000;
	44	 1	 0.0	 0.0	 0.0	 0.0	 1	    1.00000	    0.00000	 23.0	 1	    1.10000	    0.90000;
	45	 1	 0.0	 0.0	 0.0	 0.0	 1	    1.00000	    0.00000	 17.5	 1	    1.10000	    0.90000;
	46	 1	 -6.32180725649	 0.0	 0.0	 0.0624221457001	 1	    1.00000	    0.00000	 22.0	 1	    1.10000	    0.90000;
	47	 1	 1.02072695429	 0.733871934418	 0.0	 0.0	 1	    1.00000	    0.00000	 15.0	 1	    1.10000	    0.90000;
	48	 1	 1.12003359275	 0.730782591217	 0.0	 0.0	 1	    1.00000	    0.00000	 15.0	 1	    1.10000	    0.90000;
	49	 1	 0.968675146375	 0.592623299681	 0.0	 0.0	 1	    1.00000	    0.00000	 15.0	 1	    1.10000	    0.90000;
	50	 1	 0.939745739394	 0.586038304737	 0.0	 0.0	 1	    1.00000	    0.00000	 15.0	 1	    1.10000	    0.90000;
	51	 1	 -3.06059989218	 0.0	 0.0	 0.0	 1	    1.00000	    0.00000	 0.55	 1	    1.10000	    0.90000;
	52	 1	 -20.5648680557	 0.0	 0.0	 -3.9105969881	 1	    1.00000	    0.00000	 22.0	 1	    1.10000	    0.90000;
	53	 1	 -20.3553881523	 0.0	 0.0	 -3.68069020144	 1	    1.00000	    0.00000	 22.0	 1	    1.10000	    0.90000;
	54	 1	 37.3257623167	 4.58530336712	 0.0	 -4.59536475486	 1	    1.00000	    0.00000	 11.0	 1	    1.10000	    0.90000;
	55	 1	 0.0	 0.0	 0.0	 0.0	 1	    1.00000	    0.00000	 0.55	 1	    1.10000	    0.90000;
	56	 2	 7.19655427563	 2.41647754932	 0.0	 0.0	 1	    1.00000	    0.00000	 21.0	 1	    1.10000	    0.90000;
	57	 2	 0.0	 0.0	 0.0	 0.0	 1	    1.00000	    0.00000	 11.5	 1	    1.10000	    0.90000;
	58	 2	 0.0	 0.0	 0.0	 0.0	 1	    1.00000	    0.00000	 11.5	 1	    1.10000	    0.90000;
	59	 1	 0.0	 0.0	 0.0	 0.0	 1	    1.00000	    0.00000	 132.0	 1	    1.10000	    0.90000;
	60	 1	 -14.2822452541	 0.0	 0.0	 -4.09664424893	 1	    1.00000	    0.00000	 12.0	 1	    1.10000	    0.90000;
	61	 2	 0.0	 0.0	 0.0	 401.966151409	 1	    1.00000	    0.00000	 330.0	 1	    1.10000	    0.90000;
	62	 2	 0.0	 0.0	 0.0	 0.0	 1	    1.00000	    0.00000	 11.0	 1	    1.10000	    0.90000;
	63	 2	 0.0	 0.0	 0.0	 0.0	 1	    1.00000	    0.00000	 11.0	 1	    1.10000	    0.90000;
	64	 2	 0.0	 0.0	 0.0	 0.0	 1	    1.00000	    0.00000	 15.75	 1	    1.10000	    0.90000;
	65	 2	 0.0	 0.0	 0.0	 0.0	 1	    1.00000	    0.00000	 15.75	 1	    1.10000	    0.90000;
	66	 2	 0.0	 0.0	 0.0	 0.0	 1	    1.00000	    0.00000	 15.75	 1	    1.10000	    0.90000;
	67	 2	 0.0	 0.0	 0.0	 0.0	 1	    1.00000	    0.00000	 15.75	 1	    1.10000	    0.90000;
	68	 1	 0.0	 0.0	 0.0	 0.0	 1	    1.00000	    0.00000	 12.5	 1	    1.10000	    0.90000;
	69	 2	 0.0433923930489	 0.0437495418987	 0.0	 0.0	 1	    1.00000	    0.00000	 12.5	 1	    1.10000	    0.90000;
	70	 2	 0.0448706568134	 0.0477275057821	 0.0	 0.0	 1	    1.00000	    0.00000	 12.5	 1	    1.10000	    0.90000;
	71	 1	 0.0	 0.0	 0.0	 0.0	 1	    1.00000	    0.00000	 12.5	 1	    1.10000	    0.90000;
	72	 1	 0.0	 0.0	 0.0	 0.0	 1	    1.00000	    0.00000	 12.5	 1	    1.10000	    0.90000;
	73	 2	 0.0380112225227	 0.0406420744564	 0.0	 0.0	 1	    1.00000	    0.00000	 12.5	 1	    1.10000	    0.90000;
	74	 2	 0.0387934326939	 0.038430588806	 0.0	 0.0	 1	    1.00000	    0.00000	 12.5	 1	    1.10000	    0.90000;
	75	 2	 0.0380778377876	 0.0389150532997	 0.0	 0.0	 1	    1.00000	    0.00000	 12.5	 1	    1.10000	    0.90000;
	76	 2	 26.309900101	 14.9509423831	 0.0	 0.0	 1	    1.00000	    0.00000	 23.0	 1	    1.10000	    0.90000;
	77	 2	 27.9590391678	 14.582292852	 0.0	 0.0	 1	    1.00000	    0.00000	 23.0	 1	    1.10000	    0.90000;
	78	 1	 17.9440035212	 9.01682277888	 0.0	 -4.99407642437	 1	    1.00000	    0.00000	 66.0	 1	    1.10000	    0.90000;
	79	 2	 0.0	 0.0	 0.0	 0.0	 1	    1.00000	    0.00000	 11.0	 1	    1.10000	    0.90000;
	80	 2	 0.0	 0.0	 0.0	 0.0	 1	    1.00000	    0.00000	 11.0	 1	    1.10000	    0.90000;
	81	 1	 0.0	 0.0	 0.0	 0.0	 1	    1.00000	    0.00000	 11.0	 1	    1.10000	    0.90000;
	82	 1	 0.0	 0.0	 0.0	 0.0	 1	    1.00000	    0.00000	 11.0	 1	    1.10000	    0.90000;
	83	 1	 0.0	 0.0	 0.0	 0.0	 1	    1.00000	    0.00000	 11.5	 1	    1.10000	    0.90000;
	84	 1	 0.0	 0.0	 0.0	 0.0	 1	    1.00000	    0.00000	 11.5	 1	    1.10000	    0.90000;
	85	 1	 0.0	 0.0	 0.0	 0.0	 1	    1.00000	    0.00000	 500.0	 1	    1.10000	    0.90000;
	86	 1	 0.0	 0.0	 0.0	 0.0	 1	    1.00000	    0.00000	 330.0	 1	    1.10000	    0.90000;
	87	 1	 0.0	 0.0	 0.0	 0.0	 1	    1.00000	    0.00000	 500.0	 1	    1.10000	    0.90000;
	88	 1	 0.0	 0.0	 0.0	 412.028655894	 1	    1.00000	    0.00000	 330.0	 1	    1.10000	    0.90000;
	91	 1	 0.0	 0.0	 0.0	 0.0	 1	    1.00000	    0.00000	 330.0	 1	    1.10000	    0.90000;
	92	 1	 0.0	 0.0	 0.0	 0.0	 1	    1.00000	    0.00000	 500.0	 1	    1.10000	    0.90000;
	93	 1	 0.0	 0.0	 0.0	 0.0	 1	    1.00000	    0.00000	 330.0	 1	    1.10000	    0.90000;
	94	 1	 0.0	 0.0	 0.0	 0.0	 1	    1.00000	    0.00000	 500.0	 1	    1.10000	    0.90000;
	95	 1	 0.0	 0.0	 0.0	 0.0	 1	    1.00000	    0.00000	 330.0	 1	    1.10000	    0.90000;
	97	 1	 0.0	 0.0	 0.0	 0.0	 1	    1.00000	    0.00000	 330.0	 1	    1.10000	    0.90000;
	98	 1	 0.0	 0.0	 0.0	 0.0	 1	    1.00000	    0.00000	 330.0	 1	    1.10000	    0.90000;
	99	 1	 0.0	 0.0	 0.0	 0.0	 1	    1.00000	    0.00000	 330.0	 1	    1.10000	    0.90000;
	100	 1	 0.0	 0.0	 0.0	 0.0	 1	    1.00000	    0.00000	 330.0	 1	    1.10000	    0.90000;
	101	 1	 0.0	 0.0	 0.0	 0.0	 1	    1.00000	    0.00000	 330.0	 1	    1.10000	    0.90000;
	102	 1	 0.0	 0.0	 0.0	 -155.267267078	 1	    1.00000	    0.00000	 330.0	 1	    1.10000	    0.90000;
	103	 1	 0.104516655384	 -1.72427469985	 0.0	 0.0	 1	    1.00000	    0.00000	 132.0	 1	    1.10000	    0.90000;
	104	 1	 0.0	 0.0	 0.0	 -62.1507556932	 1	    1.00000	    0.00000	 330.0	 1	    1.10000	    0.90000;
	105	 1	 0.0	 0.0	 0.0	 0.0	 1	    1.00000	    0.00000	 330.0	 1	    1.10000	    0.90000;
	106	 1	 0.0	 0.0	 0.0	 0.0	 1	    1.00000	    0.00000	 330.0	 1	    1.10000	    0.90000;
	107	 1	 0.0	 0.0	 0.0	 0.0	 1	    1.00000	    0.00000	 330.0	 1	    1.10000	    0.90000;
	108	 1	 0.0	 0.0	 0.0	 0.0	 1	    1.00000	    0.00000	 330.0	 1	    1.10000	    0.90000;
	109	 1	 0.0	 0.0	 0.0	 0.0	 1	    1.00000	    0.00000	 330.0	 1	    1.10000	    0.90000;
	110	 1	 0.0	 0.0	 0.0	 0.0	 1	    1.00000	    0.00000	 330.0	 1	    1.10000	    0.90000;
	111	 1	 0.0	 0.0	 0.0	 -100.109446193	 1	    1.00000	    0.00000	 330.0	 1	    1.10000	    0.90000;
	112	 1	 0.0	 0.0	 0.0	 0.0	 1	    1.00000	    0.00000	 330.0	 1	    1.10000	    0.90000;
	113	 1	 0.0	 0.0	 0.0	 0.0	 1	    1.00000	    0.00000	 330.0	 1	    1.10000	    0.90000;
	114	 1	 0.0	 0.0	 0.0	 0.0	 1	    1.00000	    0.00000	 330.0	 1	    1.10000	    0.90000;
	115	 1	 0.0	 0.0	 0.0	 0.0	 1	    1.00000	    0.00000	 330.0	 1	    1.10000	    0.90000;
	116	 1	 0.0	 0.0	 0.0	 0.0	 1	    1.00000	    0.00000	 500.0	 1	    1.10000	    0.90000;
	117	 1	 0.0	 0.0	 0.0	 0.0	 1	    1.00000	    0.00000	 330.0	 1	    1.10000	    0.90000;
	118	 1	 0.0	 0.0	 0.0	 0.0	 1	    1.00000	    0.00000	 330.0	 1	    1.10000	    0.90000;
	119	 1	 0.0	 0.0	 0.0	 0.0	 1	    1.00000	    0.00000	 330.0	 1	    1.10000	    0.90000;
	120	 1	 0.0	 0.0	 0.0	 0.0	 1	    1.00000	    0.00000	 330.0	 1	    1.10000	    0.90000;
	121	 1	 52.1446072877	 -10.418699422	 0.0	 0.0	 1	    1.00000	    0.00000	 132.0	 1	    1.10000	    0.90000;
	122	 1	 47.0702037675	 -7.42322407302	 0.0	 0.0	 1	    1.00000	    0.00000	 132.0	 1	    1.10000	    0.90000;
	123	 1	 0.771102107275	 0.535070520377	 0.0	 0.0	 1	    1.00000	    0.00000	 132.0	 1	    1.10000	    0.90000;
	124	 1	 46.8132718256	 -6.03130423971	 0.0	 0.0	 1	    1.00000	    0.00000	 132.0	 1	    1.10000	    0.90000;
	126	 1	 0.0	 0.0	 0.0	 0.0	 1	    1.00000	    0.00000	 330.0	 1	    1.10000	    0.90000;
	127	 1	 0.0	 0.0	 0.0	 0.0	 1	    1.00000	    0.00000	 330.0	 1	    1.10000	    0.90000;
	128	 1	 0.0	 0.0	 0.0	 0.0	 1	    1.00000	    0.00000	 330.0	 1	    1.10000	    0.90000;
	129	 1	 0.0	 0.0	 0.0	 0.0	 1	    1.00000	    0.00000	 132.0	 1	    1.10000	    0.90000;
	130	 1	 0.0	 0.0	 0.0	 0.0	 1	    1.00000	    0.00000	 132.0	 1	    1.10000	    0.90000;
	131	 1	 0.0	 0.0	 0.0	 0.0	 1	    1.00000	    0.00000	 330.0	 1	    1.10000	    0.90000;
	132	 1	 14.2949130829	 5.14730489338	 0.0	 0.0	 1	    1.00000	    0.00000	 132.0	 1	    1.10000	    0.90000;
	133	 1	 0.0	 0.0	 0.0	 -246.926355765	 1	    1.00000	    0.00000	 330.0	 1	    1.10000	    0.90000;
	135	 1	 0.0	 0.0	 0.0	 0.0	 1	    1.00000	    0.00000	 330.0	 1	    1.10000	    0.90000;
	138	 1	 0.0	 0.0	 0.0	 0.0	 1	    1.00000	    0.00000	 330.0	 1	    1.10000	    0.90000;
	139	 1	 969.015003722	 274.396284277	 0.0	 221.551048583	 1	    1.00000	    0.00000	 330.0	 1	    1.10000	    0.90000;
	140	 1	 0.0	 0.0	 0.0	 0.0	 1	    1.00000	    0.00000	 330.0	 1	    1.10000	    0.90000;
	141	 1	 0.0	 0.0	 0.0	 0.0	 1	    1.00000	    0.00000	 330.0	 1	    1.10000	    0.90000;
	142	 2	 0.0	 0.0	 0.0	 192.15602316	 1	    1.00000	    0.00000	 330.0	 1	    1.10000	    0.90000;
	143	 1	 0.0	 0.0	 0.0	 0.0	 1	    1.00000	    0.00000	 330.0	 1	    1.10000	    0.90000;
	144	 1	 0.0	 0.0	 0.0	 0.0	 1	    1.00000	    0.00000	 330.0	 1	    1.10000	    0.90000;
	145	 1	 0.0	 0.0	 0.0	 0.0	 1	    1.00000	    0.00000	 330.0	 1	    1.10000	    0.90000;
	146	 1	 0.0	 0.0	 0.0	 0.0	 1	    1.00000	    0.00000	 330.0	 1	    1.10000	    0.90000;
	147	 1	 0.0	 0.0	 0.0	 0.0	 1	    1.00000	    0.00000	 330.0	 1	    1.10000	    0.90000;
	148	 1	 0.0	 0.0	 0.0	 -102.099124142	 1	    1.00000	    0.00000	 330.0	 1	    1.10000	    0.90000;
	149	 1	 0.0	 0.0	 0.0	 0.0	 1	    1.00000	    0.00000	 500.0	 1	    1.10000	    0.90000;
	150	 1	 0.0	 0.0	 0.0	 0.0	 1	    1.00000	    0.00000	 330.0	 1	    1.10000	    0.90000;
	151	 1	 0.0	 0.0	 0.0	 0.0	 1	    1.00000	    0.00000	 330.0	 1	    1.10000	    0.90000;
	152	 1	 0.0	 0.0	 0.0	 80.0795439854	 1	    1.00000	    0.00000	 132.0	 1	    1.10000	    0.90000;
	154	 1	 0.0	 0.0	 0.0	 -130.999934976	 1	    1.00000	    0.00000	 33.0	 1	    1.10000	    0.90000;
	155	 1	 0.0	 0.0	 0.0	 0.0	 1	    1.00000	    0.00000	 33.0	 1	    1.10000	    0.90000;
	156	 1	 0.216529954653	 0.40220958957	 0.0	 -98.8957157964	 1	    1.00000	    0.00000	 132.0	 1	    1.10000	    0.90000;
	157	 1	 0.0	 0.0	 0.0	 24.5882924404	 1	    1.00000	    0.00000	 132.0	 1	    1.10000	    0.90000;
	159	 1	 301.531118972	 25.0952941306	 0.0	 123.898189047	 1	    1.00000	    0.00000	 132.0	 1	    1.10000	    0.90000;
	160	 1	 0.0	 0.0	 0.0	 -34.6324332986	 1	    1.00000	    0.00000	 220.0	 1	    1.10000	    0.90000;
	161	 1	 17.9916232135	 -4.01532178472	 0.0	 38.4342529013	 1	    1.00000	    0.00000	 132.0	 1	    1.10000	    0.90000;
	162	 1	 282.123194454	 107.245840739	 0.0	 -103.907705913	 1	    1.00000	    0.00000	 132.0	 1	    1.10000	    0.90000;
	165	 1	 0.0	 0.0	 0.0	 0.0	 1	    1.00000	    0.00000	 132.0	 1	    1.10000	    0.90000;
	166	 2	 0.0	 0.0	 0.0	 30.8154675476	 1	    1.00000	    0.00000	 132.0	 1	    1.10000	    0.90000;
	170	 1	 0.0	 0.0	 0.0	 0.0	 1	    1.00000	    0.00000	 132.0	 1	    1.10000	    0.90000;
	171	 1	 139.756027023	 20.4495047483	 0.0	 0.0	 1	    1.00000	    0.00000	 132.0	 1	    1.10000	    0.90000;
	172	 1	 0.0	 0.0	 0.0	 0.0	 1	    1.00000	    0.00000	 132.0	 1	    1.10000	    0.90000;
	174	 2	 0.0	 0.0	 0.0	 0.0	 1	    1.00000	    0.00000	 33.0	 1	    1.10000	    0.90000;
	175	 1	 0.0	 0.0	 0.0	 0.0	 1	    1.00000	    0.00000	 132.0	 1	    1.10000	    0.90000;
	176	 1	 0.0	 0.0	 0.0	 0.0	 1	    1.00000	    0.00000	 132.0	 1	    1.10000	    0.90000;
	177	 1	 245.266632081	 85.0262496159	 0.0	 82.4597979225	 1	    1.00000	    0.00000	 132.0	 1	    1.10000	    0.90000;
	178	 1	 632.518389134	 -25.5202391199	 0.0	 110.238720744	 1	    1.00000	    0.00000	 132.0	 1	    1.10000	    0.90000;
	179	 1	 215.919671695	 81.5537537811	 0.0	 123.996004455	 1	    1.00000	    0.00000	 132.0	 1	    1.10000	    0.90000;
	180	 1	 0.0	 0.0	 0.0	 0.0	 1	    1.00000	    0.00000	 132.0	 1	    1.10000	    0.90000;
	181	 1	 0.0	 0.0	 0.0	 0.0	 1	    1.00000	    0.00000	 132.0	 1	    1.10000	    0.90000;
	182	 1	 78.4661207231	 3.50308306386	 0.0	 118.623397015	 1	    1.00000	    0.00000	 132.0	 1	    1.10000	    0.90000;
	183	 1	 66.0519762228	 13.3407049598	 0.0	 167.431074902	 1	    1.00000	    0.00000	 132.0	 1	    1.10000	    0.90000;
	184	 1	 24.1092058153	 6.27467704216	 0.0	 160.632906526	 1	    1.00000	    0.00000	 132.0	 1	    1.10000	    0.90000;
	185	 1	 103.77583089	 19.8401998823	 0.0	 0.0	 1	    1.00000	    0.00000	 132.0	 1	    1.10000	    0.90000;
	186	 1	 0.0	 0.0	 0.0	 0.0	 1	    1.00000	    0.00000	 132.0	 1	    1.10000	    0.90000;
	188	 1	 41.1847667449	 17.5264675299	 0.0	 0.0	 1	    1.00000	    0.00000	 132.0	 1	    1.10000	    0.90000;
	189	 1	 8.19631901153	 -0.717465096623	 0.0	 0.0	 1	    1.00000	    0.00000	 132.0	 1	    1.10000	    0.90000;
	191	 1	 158.330567612	 30.7631402486	 0.0	 59.594300447	 1	    1.00000	    0.00000	 132.0	 1	    1.10000	    0.90000;
	192	 1	 0.0	 0.0	 0.0	 78.9705364779	 1	    1.00000	    0.00000	 132.0	 1	    1.10000	    0.90000;
	193	 1	 18.2558459242	 8.83805388663	 0.0	 0.0	 1	    1.00000	    0.00000	 132.0	 1	    1.10000	    0.90000;
	194	 1	 80.4302328705	 30.8240931084	 0.0	 0.0	 1	    1.00000	    0.00000	 132.0	 1	    1.10000	    0.90000;
	195	 1	 0.0	 0.0	 0.0	 0.0	 1	    1.00000	    0.00000	 132.0	 1	    1.10000	    0.90000;
	196	 1	 68.9490856593	 30.1886233051	 0.0	 0.0	 1	    1.00000	    0.00000	 132.0	 1	    1.10000	    0.90000;
	197	 1	 0.0	 0.0	 0.0	 0.0	 1	    1.00000	    0.00000	 132.0	 1	    1.10000	    0.90000;
	198	 1	 0.0	 0.0	 0.0	 19.3074304163	 1	    1.00000	    0.00000	 132.0	 1	    1.10000	    0.90000;
	199	 1	 0.0	 0.0	 0.0	 0.0	 1	    1.00000	    0.00000	 132.0	 1	    1.10000	    0.90000;
	200	 1	 0.0	 0.0	 0.0	 0.0	 1	    1.00000	    0.00000	 132.0	 1	    1.10000	    0.90000;
	201	 1	 0.0	 0.0	 0.0	 0.0	 1	    1.00000	    0.00000	 132.0	 1	    1.10000	    0.90000;
	202	 1	 34.1927927518	 2.2713786386	 0.0	 6.20785610592	 1	    1.00000	    0.00000	 66.0	 1	    1.10000	    0.90000;
	204	 1	 0.0	 0.0	 0.0	 0.0	 1	    1.00000	    0.00000	 220.0	 1	    1.10000	    0.90000;
	205	 1	 0.0	 0.0	 0.0	 0.0	 1	    1.00000	    0.00000	 132.0	 1	    1.10000	    0.90000;
	208	 1	 27.6265726335	 14.479561446	 0.0	 0.0	 1	    1.00000	    0.00000	 132.0	 1	    1.10000	    0.90000;
	210	 1	 17.0287468017	 1.38877713294	 0.0	 -25.30242468	 1	    1.00000	    0.00000	 220.0	 1	    1.10000	    0.90000;
	211	 2	 85.8045954266	 0.0	 0.0	 0.0	 1	    1.00000	    0.00000	 110.0	 1	    1.10000	    0.90000;
	212	 1	 63.4955305943	 16.1682013051	 0.0	 0.0	 1	    1.00000	    0.00000	 132.0	 1	    1.10000	    0.90000;
	214	 1	 0.0	 0.0	 0.0	 154.116116226	 1	    1.00000	    0.00000	 132.0	 1	    1.10000	    0.90000;
	215	 1	 0.0	 0.0	 0.0	 -54.2264498049	 1	    1.00000	    0.00000	 220.0	 1	    1.10000	    0.90000;
	216	 1	 12.1669812025	 4.18680869392	 0.0	 0.0	 1	    1.00000	    0.00000	 132.0	 1	    1.10000	    0.90000;
	217	 1	 7.5037941805	 1.24192596954	 0.0	 0.0	 1	    1.00000	    0.00000	 132.0	 1	    1.10000	    0.90000;
	218	 1	 0.0	 0.0	 0.0	 0.0	 1	    1.00000	    0.00000	 132.0	 1	    1.10000	    0.90000;
	219	 1	 2.1835738987	 0.0288148468927	 0.0	 0.0	 1	    1.00000	    0.00000	 132.0	 1	    1.10000	    0.90000;
	221	 1	 82.0316256063	 22.3650536682	 0.0	 12.3653618859	 1	    1.00000	    0.00000	 132.0	 1	    1.10000	    0.90000;
	222	 1	 6.32726834923	 3.25207837966	 0.0	 0.0	 1	    1.00000	    0.00000	 132.0	 1	    1.10000	    0.90000;
	223	 1	 15.106573789	 6.24474930166	 0.0	 0.0	 1	    1.00000	    0.00000	 132.0	 1	    1.10000	    0.90000;
	225	 1	 19.6727942934	 5.26736583049	 0.0	 0.0	 1	    1.00000	    0.00000	 132.0	 1	    1.10000	    0.90000;
	227	 1	 0.0	 0.0	 0.0	 0.0	 1	    1.00000	    0.00000	 132.0	 1	    1.10000	    0.90000;
	229	 1	 5.58004724041	 -6.81500044698	 0.0	 0.0	 1	    1.00000	    0.00000	 132.0	 1	    1.10000	    0.90000;
	230	 1	 15.7879913943	 1.24274292333	 0.0	 0.0	 1	    1.00000	    0.00000	 132.0	 1	    1.10000	    0.90000;
	231	 1	 0.0	 0.0	 0.0	 0.0	 1	    1.00000	    0.00000	 132.0	 1	    1.10000	    0.90000;
	232	 1	 0.0	 0.0	 0.0	 0.0	 1	    1.00000	    0.00000	 132.0	 1	    1.10000	    0.90000;
	233	 1	 97.1050388719	 -0.724518364819	 0.0	 0.0	 1	    1.00000	    0.00000	 132.0	 1	    1.10000	    0.90000;
	234	 1	 18.5036514718	 4.52118197429	 0.0	 0.0	 1	    1.00000	    0.00000	 132.0	 1	    1.10000	    0.90000;
	236	 1	 17.7882998716	 9.62153780921	 0.0	 0.0	 1	    1.00000	    0.00000	 132.0	 1	    1.10000	    0.90000;
	237	 1	 14.2534222819	 9.38961938285	 0.0	 0.0	 1	    1.00000	    0.00000	 132.0	 1	    1.10000	    0.90000;
	239	 1	 16.3814459094	 9.99440215975	 0.0	 0.0	 1	    1.00000	    0.00000	 132.0	 1	    1.10000	    0.90000;
	240	 1	 72.0668929625	 9.15661790898	 0.0	 0.0	 1	    1.00000	    0.00000	 132.0	 1	    1.10000	    0.90000;
	242	 1	 47.8228401747	 8.40931931991	 0.0	 0.0	 1	    1.00000	    0.00000	 132.0	 1	    1.10000	    0.90000;
	245	 1	 371.9520619	 32.0407563958	 0.0	 0.0	 1	    1.00000	    0.00000	 132.0	 1	    1.10000	    0.90000;
	246	 1	 0.0	 0.0	 0.0	 0.0	 1	    1.00000	    0.00000	 132.0	 1	    1.10000	    0.90000;
	247	 1	 25.2611757615	 1.98893132955	 0.0	 0.0	 1	    1.00000	    0.00000	 132.0	 1	    1.10000	    0.90000;
	248	 1	 168.62437723	 50.3545586244	 0.0	 116.674105313	 1	    1.00000	    0.00000	 132.0	 1	    1.10000	    0.90000;
	249	 1	 3.56522878216	 1.27370266315	 0.0	 0.0	 1	    1.00000	    0.00000	 132.0	 1	    1.10000	    0.90000;
	250	 1	 21.4934204481	 -0.337196735621	 0.0	 0.0	 1	    1.00000	    0.00000	 132.0	 1	    1.10000	    0.90000;
	251	 1	 24.1740628548	 7.06539107952	 0.0	 0.0	 1	    1.00000	    0.00000	 132.0	 1	    1.10000	    0.90000;
	252	 1	 29.1766879096	 9.88648703697	 0.0	 0.0	 1	    1.00000	    0.00000	 132.0	 1	    1.10000	    0.90000;
	253	 1	 430.364965738	 53.943343745	 0.0	 0.0	 1	    1.00000	    0.00000	 132.0	 1	    1.10000	    0.90000;
	254	 1	 50.3033259282	 9.91478981628	 0.0	 0.0	 1	    1.00000	    0.00000	 132.0	 1	    1.10000	    0.90000;
	255	 1	 0.0	 0.0	 0.0	 0.0	 1	    1.00000	    0.00000	 132.0	 1	    1.10000	    0.90000;
	256	 1	 0.0	 0.0	 0.0	 0.0	 1	    1.00000	    0.00000	 132.0	 1	    1.10000	    0.90000;
	257	 1	 50.2121305001	 26.702488916	 0.0	 0.0	 1	    1.00000	    0.00000	 132.0	 1	    1.10000	    0.90000;
	258	 1	 105.356676604	 18.7071890559	 0.0	 0.0	 1	    1.00000	    0.00000	 132.0	 1	    1.10000	    0.90000;
	260	 1	 0.0	 0.0	 0.0	 0.0	 1	    1.00000	    0.00000	 132.0	 1	    1.10000	    0.90000;
	262	 1	 0.0	 0.0	 0.0	 0.0	 1	    1.00000	    0.00000	 132.0	 1	    1.10000	    0.90000;
	266	 1	 0.0	 0.0	 0.0	 0.0	 1	    1.00000	    0.00000	 132.0	 1	    1.10000	    0.90000;
	267	 1	 0.0	 0.0	 0.0	 0.0	 1	    1.00000	    0.00000	 132.0	 1	    1.10000	    0.90000;
	274	 1	 0.0	 0.0	 0.0	 0.0	 1	    1.00000	    0.00000	 132.0	 1	    1.10000	    0.90000;
	275	 1	 0.0	 0.0	 0.0	 0.0	 1	    1.00000	    0.00000	 132.0	 1	    1.10000	    0.90000;
	276	 1	 0.0	 0.0	 0.0	 0.0	 1	    1.00000	    0.00000	 132.0	 1	    1.10000	    0.90000;
	277	 1	 203.875945774	 25.6224838701	 0.0	 0.0	 1	    1.00000	    0.00000	 132.0	 1	    1.10000	    0.90000;
	278	 1	 0.0	 0.0	 0.0	 0.0	 1	    1.00000	    0.00000	 132.0	 1	    1.10000	    0.90000;
	280	 1	 0.0	 0.0	 0.0	 0.0	 1	    1.00000	    0.00000	 132.0	 1	    1.10000	    0.90000;
	281	 1	 43.936337597	 14.5431464396	 0.0	 0.0	 1	    1.00000	    0.00000	 132.0	 1	    1.10000	    0.90000;
	282	 1	 306.330305398	 87.8662169632	 0.0	 0.0	 1	    1.00000	    0.00000	 132.0	 1	    1.10000	    0.90000;
	285	 1	 4.88559503559	 -2.27176894394	 0.0	 0.0	 1	    1.00000	    0.00000	 132.0	 1	    1.10000	    0.90000;
	286	 1	 1.20939773935	 -1.75194697254	 0.0	 0.0	 1	    1.00000	    0.00000	 132.0	 1	    1.10000	    0.90000;
	287	 1	 40.1349033438	 12.2873722733	 0.0	 0.0	 1	    1.00000	    0.00000	 132.0	 1	    1.10000	    0.90000;
	289	 1	 0.0	 0.0	 0.0	 0.0	 1	    1.00000	    0.00000	 132.0	 1	    1.10000	    0.90000;
	290	 1	 0.0	 0.0	 0.0	 0.0	 1	    1.00000	    0.00000	 132.0	 1	    1.10000	    0.90000;
	292	 1	 3.94219247617	 1.08708103517	 0.0	 0.0	 1	    1.00000	    0.00000	 132.0	 1	    1.10000	    0.90000;
	293	 1	 0.0	 0.0	 0.0	 0.0	 1	    1.00000	    0.00000	 132.0	 1	    1.10000	    0.90000;
	294	 1	 70.1030697944	 -6.36621199402	 0.0	 0.0	 1	    1.00000	    0.00000	 132.0	 1	    1.10000	    0.90000;
	295	 1	 0.0	 0.0	 0.0	 0.0	 1	    1.00000	    0.00000	 132.0	 1	    1.10000	    0.90000;
	297	 1	 0.0	 0.0	 0.0	 0.0	 1	    1.00000	    0.00000	 132.0	 1	    1.10000	    0.90000;
	298	 1	 56.5302091811	 23.0592977448	 0.0	 0.0	 1	    1.00000	    0.00000	 132.0	 1	    1.10000	    0.90000;
	299	 1	 146.8307112	 51.3869039126	 0.0	 0.0	 1	    1.00000	    0.00000	 132.0	 1	    1.10000	    0.90000;
	300	 1	 45.919339858	 15.5066591459	 0.0	 0.0	 1	    1.00000	    0.00000	 132.0	 1	    1.10000	    0.90000;
	301	 1	 0.0	 0.0	 0.0	 0.0	 1	    1.00000	    0.00000	 132.0	 1	    1.10000	    0.90000;
	302	 1	 0.404248638996	 4.44766780114	 0.0	 0.0	 1	    1.00000	    0.00000	 132.0	 1	    1.10000	    0.90000;
	303	 1	 0.0	 0.0	 0.0	 0.0	 1	    1.00000	    0.00000	 132.0	 1	    1.10000	    0.90000;
	304	 1	 0.0	 0.0	 0.0	 0.0	 1	    1.00000	    0.00000	 132.0	 1	    1.10000	    0.90000;
	305	 1	 0.0	 0.0	 0.0	 0.0	 1	    1.00000	    0.00000	 132.0	 1	    1.10000	    0.90000;
	306	 1	 0.0	 0.0	 0.0	 0.0	 1	    1.00000	    0.00000	 132.0	 1	    1.10000	    0.90000;
	307	 1	 39.0586504046	 10.9390242568	 0.0	 0.0	 1	    1.00000	    0.00000	 132.0	 1	    1.10000	    0.90000;
	308	 1	 0.0	 0.0	 0.0	 0.0	 1	    1.00000	    0.00000	 132.0	 1	    1.10000	    0.90000;
	310	 1	 0.0	 0.0	 0.0	 0.0	 1	    1.00000	    0.00000	 132.0	 1	    1.10000	    0.90000;
	311	 1	 74.9001360263	 14.1470871984	 0.0	 15.8350897409	 1	    1.00000	    0.00000	 33.0	 1	    1.10000	    0.90000;
	312	 1	 0.0	 0.0	 0.0	 0.0	 1	    1.00000	    0.00000	 33.0	 1	    1.10000	    0.90000;
	313	 1	 2.12926065332	 -0.991809205627	 0.0	 0.0	 1	    1.00000	    0.00000	 132.0	 1	    1.10000	    0.90000;
	314	 1	 25.0610410354	 7.49688801184	 0.0	 0.0	 1	    1.00000	    0.00000	 132.0	 1	    1.10000	    0.90000;
	315	 1	 0.0	 0.0	 0.0	 0.0	 1	    1.00000	    0.00000	 132.0	 1	    1.10000	    0.90000;
	317	 1	 0.0	 0.0	 0.0	 0.0	 1	    1.00000	    0.00000	 132.0	 1	    1.10000	    0.90000;
	319	 1	 0.0	 0.0	 0.0	 0.0	 1	    1.00000	    0.00000	 132.0	 1	    1.10000	    0.90000;
	321	 1	 0.0	 0.0	 0.0	 0.0	 1	    1.00000	    0.00000	 132.0	 1	    1.10000	    0.90000;
	323	 1	 40.0287122889	 22.0998052462	 0.0	 0.0	 1	    1.00000	    0.00000	 132.0	 1	    1.10000	    0.90000;
	324	 1	 0.0	 0.0	 0.0	 0.0	 1	    1.00000	    0.00000	 132.0	 1	    1.10000	    0.90000;
	325	 1	 0.0	 0.0	 0.0	 0.0	 1	    1.00000	    0.00000	 132.0	 1	    1.10000	    0.90000;
	326	 1	 0.0	 0.0	 0.0	 0.0	 1	    1.00000	    0.00000	 132.0	 1	    1.10000	    0.90000;
	327	 1	 0.0	 0.0	 0.0	 0.0	 1	    1.00000	    0.00000	 132.0	 1	    1.10000	    0.90000;
	328	 1	 0.0	 0.0	 0.0	 0.0	 1	    1.00000	    0.00000	 132.0	 1	    1.10000	    0.90000;
	329	 1	 0.0	 0.0	 0.0	 0.0	 1	    1.00000	    0.00000	 132.0	 1	    1.10000	    0.90000;
	331	 1	 42.5891392426	 15.7574911921	 0.0	 0.0	 1	    1.00000	    0.00000	 132.0	 1	    1.10000	    0.90000;
	334	 1	 26.4546738129	 1.99263848347	 0.0	 0.0	 1	    1.00000	    0.00000	 132.0	 1	    1.10000	    0.90000;
	336	 1	 27.0675984925	 8.24960723634	 0.0	 0.0	 1	    1.00000	    0.00000	 132.0	 1	    1.10000	    0.90000;
	337	 1	 20.8905655668	 6.68858540433	 0.0	 0.0	 1	    1.00000	    0.00000	 132.0	 1	    1.10000	    0.90000;
	338	 1	 11.5436374858	 2.37368342889	 0.0	 0.0	 1	    1.00000	    0.00000	 132.0	 1	    1.10000	    0.90000;
	339	 1	 0.0	 0.0	 0.0	 0.0	 1	    1.00000	    0.00000	 132.0	 1	    1.10000	    0.90000;
	340	 1	 0.0	 0.0	 0.0	 0.0	 1	    1.00000	    0.00000	 132.0	 1	    1.10000	    0.90000;
	342	 1	 19.157369922	 5.23623543562	 0.0	 0.0	 1	    1.00000	    0.00000	 132.0	 1	    1.10000	    0.90000;
	343	 1	 24.1752477317	 11.1338710495	 0.0	 0.0	 1	    1.00000	    0.00000	 132.0	 1	    1.10000	    0.90000;
	344	 1	 0.0	 0.0	 0.0	 0.0	 1	    1.00000	    0.00000	 132.0	 1	    1.10000	    0.90000;
	346	 1	 47.7242046059	 10.3197121969	 0.0	 0.0	 1	    1.00000	    0.00000	 132.0	 1	    1.10000	    0.90000;
	348	 1	 7.2459902018	 -0.089337501277	 0.0	 0.0	 1	    1.00000	    0.00000	 132.0	 1	    1.10000	    0.90000;
	349	 1	 21.3296455352	 2.46440226896	 0.0	 0.0	 1	    1.00000	    0.00000	 66.0	 1	    1.10000	    0.90000;
	350	 1	 13.103709762	 8.37518649364	 0.0	 0.0	 1	    1.00000	    0.00000	 132.0	 1	    1.10000	    0.90000;
	352	 1	 2.671854284	 3.506904163	 0.0	 0.0	 1	    1.00000	    0.00000	 132.0	 1	    1.10000	    0.90000;
	353	 1	 39.3975365663	 -0.0852219480829	 0.0	 0.0	 1	    1.00000	    0.00000	 132.0	 1	    1.10000	    0.90000;
	356	 1	 23.3277975986	 7.27340412262	 0.0	 0.0	 1	    1.00000	    0.00000	 132.0	 1	    1.10000	    0.90000;