%%%%%%%%%%%%%%%%%%%%%%%%%%%%%%%%%%%%%%%%%%%%%%%%%%%%%%%%%%%%%%%%%%%%%%%%%%%
%%%%                                                                  %%%%%
%%%%    IEEE PES Power Grid Library - Optimal Power Flow - v17.07     %%%%%
%%%%          (https://github.com/power-grid-lib/pglib-opf)           %%%%%
%%%%             Benchmark Group - Small Angle Difference             %%%%%
%%%%                         27 - June - 2017                         %%%%%
%%%%                                                                  %%%%%
%%%%%%%%%%%%%%%%%%%%%%%%%%%%%%%%%%%%%%%%%%%%%%%%%%%%%%%%%%%%%%%%%%%%%%%%%%%
function mpc = pglib_opf_case1951_rte__sad
mpc.version = '2';
mpc.baseMVA = 100.0;

%% bus data
%	bus_i	type	Pd	Qd	Gs	Bs	area	Vm	Va	baseKV	zone	Vmax	Vmin
mpc.bus = [
	1	 1	 36.4	 19.5	 0.0	 0.0	 1	    1.06058	  -12.86130	 225.0	 1	    1.08889	    0.88889;
	2	 1	 0.0	 0.0	 0.0	 0.0	 1	    1.09853	   -0.35906	 380.0	 1	    1.10263	    1.04841;
	3	 1	 245.2	 16.4	 0.0	 0.0	 1	    1.06704	  -14.86099	 225.0	 1	    1.08444	    1.00444;
	4	 1	 0.0	 0.0	 0.0	 0.0	 1	    1.06817	   -1.83336	 150.0	 1	    1.10667	    0.90000;
	5	 1	 51.8	 13.5	 0.0	 0.0	 1	    1.08854	   -3.33525	 225.0	 1	    1.08889	    0.93333;
	6	 1	 36.6	 11.6	 0.0	 0.0	 1	    1.08241	   -4.56057	 225.0	 1	    1.08889	    0.93333;
	7	 1	 0.0	 0.0	 0.0	 0.0	 1	    1.09614	   -3.29012	 380.0	 1	    1.10526	    1.03947;
	8	 1	 0.0	 0.0	 0.0	 0.0	 1	    1.08925	   -3.93126	 380.0	 1	    1.10526	    1.03947;
	9	 1	 0.0	 0.0	 0.0	 0.0	 1	    1.08675	  -19.26455	 225.0	 1	    1.09035	    1.00444;
	10	 1	 193.4	 48.9	 0.0	 0.0	 1	    1.05421	   -8.89009	 225.0	 1	    1.08889	    0.93333;
	11	 1	 57.7	 14.6	 0.0	 0.0	 1	    1.07848	  -20.08597	 225.0	 1	    1.08889	    1.00444;
	12	 1	 27.8	 24.4	 0.0	 0.0	 1	    1.08573	  -16.36056	 225.0	 1	    1.08889	    1.00444;
	13	 1	 177.5	 52.5	 0.0	 0.0	 1	    1.07827	  -20.08773	 225.0	 1	    1.08889	    1.00444;
	14	 1	 75.8	 7.3	 0.0	 0.0	 1	    1.07125	   -9.26325	 225.0	 1	    1.08252	    0.95000;
	15	 1	 0.0	 0.0	 0.0	 0.0	 1	    1.08889	   -5.10081	 225.0	 1	    1.08889	    1.00444;
	16	 1	 0.0	 0.0	 0.0	 0.0	 1	    1.08889	   -5.10081	 225.0	 1	    1.08889	    1.00444;
	17	 1	 66.2	 0.9	 0.0	 0.0	 1	    1.07136	   -9.31755	 225.0	 1	    1.08889	    0.88889;
	18	 1	 12.3	 7.1	 0.0	 0.0	 1	    1.07515	   -4.45937	 225.0	 1	    1.09633	    0.98667;
	19	 1	 67.9	 23.0	 0.0	 0.0	 1	    1.06692	  -18.36178	 225.0	 1	    1.08889	    1.00444;
	20	 1	 29.2	 7.2	 0.0	 0.0	 1	    1.06699	  -18.35907	 225.0	 1	    1.08889	    1.00444;
	21	 1	 77.8	 31.2	 0.0	 0.0	 1	    1.07372	  -16.43150	 225.0	 1	    1.08889	    1.00444;
	22	 1	 105.6	 22.8	 0.0	 0.0	 1	    1.07096	   -9.85861	 225.0	 1	    1.08889	    0.98667;
	23	 1	 41.1	 2.7	 0.0	 0.0	 1	    1.05997	  -11.30651	 225.0	 1	    1.08889	    0.88889;
	25	 1	 56.2	 8.1	 0.0	 0.0	 1	    1.08166	  -20.66293	 225.0	 1	    1.08444	    1.00889;
	26	 1	 29.3	 6.4	 0.0	 0.0	 1	    1.08199	  -20.61725	 225.0	 1	    1.08444	    1.00889;
	27	 1	 102.1	 38.0	 0.0	 0.0	 1	    1.05239	   -8.00392	 225.0	 1	    1.08889	    0.93333;
	28	 1	 172.1	 40.0	 0.0	 0.0	 1	    1.07451	  -16.76457	 225.0	 1	    1.08889	    1.00444;
	29	 1	 0.0	 0.0	 0.0	 0.0	 1	    1.09874	   -0.32013	 380.0	 1	    1.10526	    1.04842;
	30	 1	 0.0	 0.0	 0.0	 0.0	 1	    1.09876	   -0.31835	 380.0	 1	    1.10526	    1.04842;
	31	 1	 36.2	 31.7	 0.0	 0.0	 1	    1.08155	   -4.59656	 225.0	 1	    1.08444	    1.00889;
	33	 1	 133.2	 20.1	 0.0	 0.0	 1	    1.07981	   -7.99051	 225.0	 1	    1.08444	    1.00889;
	34	 1	 89.4	 29.6	 0.0	 0.0	 1	    1.04026	  -19.34507	 225.0	 1	    1.08889	    1.00444;
	2013	 1	 0.0	 0.0	 0.0	 0.0	 1	    1.07965	  -19.90890	 225.0	 1	    1.08889	    1.00444;
	35	 1	 10.3	 -0.4	 0.0	 0.0	 1	    1.07324	   -5.22948	 150.0	 1	    1.08000	    0.96667;
	36	 1	 22.3	 6.7	 0.0	 80.0	 1	    1.07182	  -12.01849	 225.0	 1	    1.09212	    1.00000;
	37	 1	 0.0	 0.0	 0.0	 0.0	 1	    1.07846	   -8.86020	 380.0	 1	    1.10526	    1.04785;
	38	 1	 144.2	 18.9	 0.0	 0.0	 1	    1.04837	  -12.18572	 225.0	 1	    1.08889	    0.98667;
	39	 1	 117.8	 31.5	 0.0	 0.0	 1	    1.07224	   -9.08465	 225.0	 1	    1.08889	    0.96889;
	40	 1	 194.8	 53.6	 0.0	 0.0	 1	    1.08689	   -5.82920	 380.0	 1	    1.10526	    1.00000;
	41	 1	 64.7	 12.6	 0.0	 0.0	 1	    1.07545	   -7.57134	 225.0	 1	    1.08889	    0.93333;
	42	 1	 44.6	 15.6	 0.0	 0.0	 1	    1.06895	  -10.02355	 225.0	 1	    1.08889	    0.88889;
	43	 1	 46.9	 11.7	 0.0	 0.0	 1	    1.06910	  -10.02876	 225.0	 1	    1.08889	    0.88889;
	44	 1	 381.3	 62.5	 0.0	 0.0	 1	    1.07274	  -23.43719	 225.0	 1	    1.08496	    1.00444;
	45	 1	 161.5	 -38.5	 0.0	 0.0	 1	    1.07918	  -18.40792	 225.0	 1	    1.08889	    1.00444;
	46	 2	 0.0	 0.0	 0.0	 0.0	 1	    1.10519	   -6.72845	 150.0	 1	    1.10843	    0.90000;
	47	 1	 0.0	 0.0	 0.0	 0.0	 1	    1.08789	  -18.59215	 225.0	 1	    1.08889	    1.00444;
	48	 1	 0.0	 0.0	 0.0	 0.0	 1	    1.08789	  -18.59215	 225.0	 1	    1.08889	    1.00444;
	49	 1	 123.5	 43.4	 0.0	 0.0	 1	    1.08789	  -18.59214	 225.0	 1	    1.08889	    1.00444;
	50	 1	 10.0	 3.7	 0.0	 0.0	 1	    1.07462	  -17.32543	 225.0	 1	    1.08889	    1.00444;
	51	 1	 0.0	 0.0	 0.0	 0.0	 1	    1.08621	  -10.25300	 225.0	 1	    1.08889	    1.00000;
	52	 1	 74.6	 28.0	 0.0	 0.0	 1	    1.05747	  -11.84023	 225.0	 1	    1.08889	    0.88889;
	53	 1	 160.2	 38.2	 0.0	 0.0	 1	    1.07617	   -4.50565	 225.0	 1	    1.08889	    0.96889;
	54	 1	 0.0	 0.0	 0.0	 0.0	 1	    1.09271	   -0.76871	 380.0	 1	    1.10526	    1.00000;
	55	 1	 31.0	 11.0	 0.0	 0.0	 1	    1.07982	   -6.43539	 225.0	 1	    1.08444	    1.00889;
	56	 1	 14.7	 -1.0	 0.0	 0.0	 1	    1.08014	   -6.42027	 225.0	 1	    1.08444	    1.00889;
	1827	 1	 201.2	 11.7	 0.0	 0.0	 1	    1.06127	  -21.77545	 225.0	 1	    1.08889	    1.00444;
	57	 1	 57.0	 3.0	 0.0	 0.0	 1	    1.07926	   -8.35151	 225.0	 1	    1.08945	    0.93333;
	58	 2	 0.0	 0.0	 0.0	 0.0	 1	    1.10369	   -6.94082	 150.0	 1	    1.10862	    0.90000;
	59	 1	 55.4	 19.7	 0.0	 0.0	 1	    1.08380	   -3.91225	 225.0	 1	    1.08444	    1.00889;
	60	 1	 55.7	 41.6	 0.0	 0.0	 1	    1.08346	   -3.90914	 225.0	 1	    1.08444	    1.00889;
	61	 1	 0.0	 0.0	 0.0	 0.0	 1	    1.08401	   -4.48194	 225.0	 1	    1.08889	    0.97778;
	62	 1	 16.4	 4.9	 0.0	 0.0	 1	    1.08625	   -9.30777	 225.0	 1	    1.08889	    0.88889;
	63	 1	 1.6	 12.7	 0.0	 0.0	 1	    1.08889	   -1.94712	 225.0	 1	    1.08889	    0.93333;
	64	 1	 29.7	 12.0	 0.0	 0.0	 1	    1.08432	  -16.65192	 225.0	 1	    1.08889	    1.00444;
	65	 1	 54.7	 13.6	 0.0	 0.0	 1	    1.08617	  -19.35143	 225.0	 1	    1.08889	    1.00444;
	66	 1	 -21.9	 -5.1	 0.0	 0.0	 1	    1.08655	  -10.54188	 225.0	 1	    1.08889	    1.00000;
	67	 1	 29.2	 -2.5	 0.0	 0.0	 1	    1.08214	  -11.98874	 225.0	 1	    1.08889	    0.98667;
	68	 1	 0.0	 0.0	 0.0	 80.0	 1	    1.07997	   -9.86285	 225.0	 1	    1.08889	    0.88889;
	69	 1	 0.0	 0.0	 0.0	 0.0	 1	    1.06340	  -10.77904	 225.0	 1	    1.08889	    0.88889;
	70	 1	 0.0	 0.0	 0.0	 0.0	 1	    1.08524	   -6.42264	 380.0	 1	    1.10526	    1.01316;
	71	 1	 76.3	 14.3	 0.0	 0.0	 1	    1.06600	  -18.55276	 225.0	 1	    1.08889	    1.00444;
	72	 1	 29.0	 5.0	 0.0	 0.0	 1	    1.08439	  -17.17776	 225.0	 1	    1.08889	    1.00444;
	73	 1	 0.0	 0.0	 0.0	 0.0	 1	    1.07584	   -5.35664	 225.0	 1	    1.08889	    0.97778;
	74	 1	 0.0	 0.0	 0.0	 0.0	 1	    1.07585	   -5.35604	 225.0	 1	    1.08889	    0.97778;
	75	 1	 182.4	 31.2	 0.0	 0.0	 1	    1.07331	   -5.95573	 225.0	 1	    1.08444	    1.00889;
	76	 1	 0.0	 0.0	 0.0	 0.0	 1	    1.08154	  -19.34015	 225.0	 1	    1.08444	    1.00444;
	77	 1	 0.0	 0.0	 0.0	 0.0	 1	    1.10242	  -13.22313	 380.0	 1	    1.10263	    1.04211;
	78	 1	 116.1	 17.6	 0.0	 0.0	 1	    1.08117	  -19.40020	 225.0	 1	    1.08444	    1.00444;
	79	 1	 -7.4	 0.9	 0.0	 0.0	 1	    1.08672	  -16.19658	 225.0	 1	    1.08936	    1.00444;
	80	 1	 14.0	 12.6	 0.0	 0.0	 1	    1.08659	  -16.20668	 225.0	 1	    1.08936	    1.00444;
	81	 1	 48.7	 2.9	 0.0	 0.0	 1	    1.08307	   -5.05245	 225.0	 1	    1.08889	    0.88889;
	82	 1	 27.9	 3.3	 0.0	 0.0	 1	    1.06343	  -10.70371	 225.0	 1	    1.08124	    0.95000;
	83	 1	 61.9	 19.7	 0.0	 0.0	 1	    1.08019	   -4.31989	 225.0	 1	    1.08889	    0.88889;
	84	 1	 158.1	 -16.5	 0.0	 0.0	 1	    1.05940	  -12.91100	 225.0	 1	    1.08889	    1.00000;
	85	 1	 0.0	 0.0	 0.0	 0.0	 1	    1.04552	   -9.26630	 225.0	 1	    1.08889	    1.00000;
	86	 1	 403.7	 124.8	 0.0	 0.0	 1	    1.08428	   -9.21250	 380.0	 1	    1.10526	    1.05070;
	87	 1	 108.6	 44.4	 0.0	 0.0	 1	    1.06139	  -10.48083	 225.0	 1	    1.08889	    1.00000;
	88	 1	 140.7	 36.8	 0.0	 0.0	 1	    1.07909	  -11.88510	 225.0	 1	    1.08889	    1.00000;
	89	 2	 0.0	 0.0	 0.0	 0.0	 1	    1.03441	  -11.04414	 150.0	 1	    1.10000	    0.90000;
	90	 1	 56.6	 23.2	 0.0	 0.0	 1	    1.04851	  -12.63343	 225.0	 1	    1.08889	    0.98667;
	91	 1	 12.5	 6.1	 0.0	 0.0	 1	    1.07851	   -4.87139	 225.0	 1	    1.08444	    1.00889;
	92	 1	 0.0	 0.0	 0.0	 0.0	 1	    1.10002	   -1.95599	 380.0	 1	    1.10526	    1.04211;
	93	 1	 0.0	 0.0	 0.0	 0.0	 1	    1.10001	   -2.01314	 380.0	 1	    1.10526	    1.04211;
	96	 1	 12.7	 0.6	 0.0	 0.0	 1	    1.06350	  -12.02024	 225.0	 1	    1.08889	    1.00000;
	97	 1	 18.3	 11.1	 0.0	 0.0	 1	    1.06634	  -17.21038	 225.0	 1	    1.08889	    1.00444;
	98	 1	 90.8	 9.6	 0.0	 0.0	 1	    1.08273	  -10.23217	 150.0	 1	    1.10000	    0.90000;
	99	 1	 82.1	 -2.6	 0.0	 0.0	 1	    1.08463	  -11.13054	 225.0	 1	    1.08889	    1.00000;
	100	 2	 1.3	 0.0	 0.0	 0.0	 1	    1.06709	  -18.40670	 225.0	 1	    1.08294	    0.95000;
	101	 1	 0.0	 0.0	 0.0	 0.0	 1	    1.08889	   -3.25708	 225.0	 1	    1.08889	    0.93333;
	102	 1	 0.0	 0.0	 0.0	 0.0	 1	    1.09009	   -3.85409	 380.0	 1	    1.10526	    1.03947;
	103	 1	 0.0	 0.0	 0.0	 0.0	 1	    1.09672	   -3.22721	 380.0	 1	    1.10526	    1.03947;
	104	 1	 0.0	 0.0	 0.0	 0.0	 1	    1.07884	  -20.06400	 225.0	 1	    1.08889	    1.00444;
	1828	 1	 86.9	 24.6	 0.0	 0.0	 1	    1.03827	  -19.61349	 225.0	 1	    1.08889	    1.00444;
	105	 1	 0.0	 0.0	 0.0	 0.0	 1	    1.04685	   -7.73862	 225.0	 1	    1.08889	    0.98667;
	106	 1	 12.8	 7.6	 0.0	 0.0	 1	    1.07868	  -20.07299	 225.0	 1	    1.08889	    1.00444;
	107	 1	 150.1	 27.1	 0.0	 0.0	 1	    1.04495	   -8.64285	 225.0	 1	    1.08889	    0.93333;
	108	 1	 0.0	 0.0	 0.0	 0.0	 1	    1.07840	   -5.26787	 380.0	 1	    1.10526	    1.03947;
	109	 1	 32.1	 -1.6	 0.0	 0.0	 1	    1.07610	  -10.24643	 225.0	 1	    1.08889	    1.00000;
	110	 1	 29.4	 1.2	 0.0	 0.0	 1	    1.07731	  -17.50030	 225.0	 1	    1.08986	    1.00444;
	111	 1	 131.9	 2.8	 0.0	 0.0	 1	    1.07456	  -12.56178	 225.0	 1	    1.09612	    1.00000;
	112	 1	 174.9	 55.6	 0.0	 0.0	 1	    1.06850	   -6.31426	 225.0	 1	    1.08889	    0.98667;
	113	 1	 129.6	 33.2	 0.0	 0.0	 1	    1.08677	  -19.25774	 225.0	 1	    1.09036	    1.00444;
	114	 1	 245.6	 120.6	 0.0	 0.0	 1	    1.04686	  -12.38924	 225.0	 1	    1.08889	    0.92444;
	115	 1	 82.1	 14.7	 0.0	 0.0	 1	    1.09609	   -2.62012	 225.0	 1	    1.09614	    0.98667;
	117	 1	 0.0	 0.0	 0.0	 0.0	 1	    1.10401	   -1.51567	 380.0	 1	    1.10526	    1.03947;
	119	 1	 192.0	 -29.8	 0.0	 0.0	 1	    1.06330	  -37.29022	 225.0	 1	    1.08444	    1.00444;
	120	 1	 21.6	 -16.9	 0.0	 0.0	 1	    1.08401	  -19.35344	 225.0	 1	    1.08444	    1.00889;
	121	 1	 0.0	 0.0	 0.0	 0.0	 1	    1.07850	  -16.62468	 380.0	 1	    1.10263	    1.02895;
	122	 1	 -0.1	 -4.2	 0.0	 0.0	 1	    1.04551	   -8.64937	 225.0	 1	    1.08889	    0.93333;
	123	 1	 172.6	 37.2	 0.0	 0.0	 1	    1.05505	   -7.55577	 225.0	 1	    1.08889	    0.93333;
	124	 1	 31.9	 29.8	 0.0	 0.0	 1	    1.01522	  -18.76188	 63.0	 1	    1.07937	    0.92063;
	125	 2	 0.0	 0.0	 0.0	 0.0	 1	    1.07476	   -3.41097	 225.0	 1	    1.07476	    0.95000;
	126	 1	 4.4	 5.3	 0.0	 0.0	 1	    1.08474	   -3.67243	 225.0	 1	    1.09768	    1.00000;
	127	 1	 0.0	 0.0	 0.0	 0.0	 1	    1.08380	   -3.50625	 380.0	 1	    1.10526	    1.05263;
	128	 1	 0.0	 0.0	 0.0	 0.0	 1	    1.08384	   -3.50320	 380.0	 1	    1.10526	    1.05263;
	129	 1	 0.0	 0.0	 0.0	 0.0	 1	    1.08384	   -3.49968	 380.0	 1	    1.10526	    1.05263;
	130	 1	 0.0	 0.0	 0.0	 0.0	 1	    1.08384	   -3.51501	 380.0	 1	    1.10526	    1.05263;
	131	 1	 0.0	 0.0	 0.0	 0.0	 1	    1.09645	   -2.49853	 225.0	 1	    1.09645	    0.98667;
	132	 1	 0.0	 0.0	 0.0	 0.0	 1	    1.09645	   -2.50656	 225.0	 1	    1.09645	    0.98667;
	133	 1	 0.0	 0.0	 0.0	 0.0	 1	    1.10440	   -1.39551	 380.0	 1	    1.10526	    1.03947;
	134	 1	 123.5	 26.5	 0.0	 0.0	 1	    1.05883	  -11.05085	 225.0	 1	    1.08889	    0.96889;
	135	 1	 39.1	 10.1	 0.0	 0.0	 1	    1.08173	  -20.60022	 225.0	 1	    1.08444	    1.00889;
	136	 1	 4.4	 -3.3	 0.0	 0.0	 1	    1.10481	   -8.09627	 380.0	 1	    1.10526	    1.03947;
	137	 1	 166.9	 46.7	 0.0	 0.0	 1	    1.06045	   -7.70397	 225.0	 1	    1.08889	    0.93333;
	138	 1	 0.0	 0.0	 0.0	 0.0	 1	    1.07811	   -2.75159	 380.0	 1	    1.10526	    1.03947;
	140	 1	 202.0	 20.2	 0.0	 0.0	 1	    1.08098	   -4.30653	 225.0	 1	    1.08444	    1.00889;
	142	 1	 231.3	 -18.3	 0.0	 0.0	 1	    1.06172	  -12.51332	 225.0	 1	    1.08444	    1.00444;
	143	 1	 49.3	 7.8	 0.0	 0.0	 1	    1.05914	   -8.44009	 225.0	 1	    1.08889	    0.93333;
	144	 1	 40.6	 10.3	 0.0	 0.0	 1	    1.05912	   -8.43996	 225.0	 1	    1.08889	    0.93333;
	145	 1	 49.8	 -6.2	 0.0	 0.0	 1	    1.07736	  -17.48721	 225.0	 1	    1.08952	    1.00444;
	146	 1	 0.0	 0.0	 0.0	 0.0	 1	    1.08392	   -5.93090	 225.0	 1	    1.09478	    1.00000;
	147	 1	 0.0	 0.0	 0.0	 0.0	 1	    1.08392	   -5.93088	 225.0	 1	    1.09478	    1.00000;
	148	 1	 68.7	 4.5	 0.0	 0.0	 1	    1.06147	  -12.41233	 225.0	 1	    1.08889	    1.00000;
	149	 1	 30.0	 -1.5	 0.0	 0.0	 1	    1.07677	  -13.59778	 225.0	 1	    1.08889	    1.00444;
	150	 1	 52.2	 3.9	 0.0	 0.0	 1	    1.07760	   -5.02767	 225.0	 1	    1.08444	    1.00889;
	151	 1	 40.2	 6.8	 0.0	 0.0	 1	    1.05490	  -13.60187	 225.0	 1	    1.08889	    1.00000;
	152	 1	 0.0	 0.0	 0.0	 0.0	 1	    1.08207	  -10.97257	 225.0	 1	    1.08444	    1.00889;
	153	 1	 0.0	 0.0	 0.0	 0.0	 1	    1.08198	  -10.98219	 225.0	 1	    1.08444	    1.00889;
	154	 1	 0.0	 0.0	 0.0	 0.0	 1	    1.08193	   -5.79989	 225.0	 1	    1.08444	    1.00889;
	155	 1	 0.0	 0.0	 0.0	 0.0	 1	    1.08433	   -4.34373	 380.0	 1	    1.10263	    1.02895;
	156	 1	 165.9	 38.2	 0.0	 0.0	 1	    1.08058	   -4.16281	 225.0	 1	    1.08889	    0.88889;
	157	 1	 0.0	 0.0	 0.0	 0.0	 1	    1.08476	   -3.67220	 225.0	 1	    1.09766	    1.00000;
	158	 1	 0.0	 0.0	 0.0	 0.0	 1	    1.08371	   -3.57916	 380.0	 1	    1.10526	    1.05263;
	159	 1	 37.1	 -0.1	 0.0	 0.0	 1	    1.08108	  -13.11905	 225.0	 1	    1.08889	    0.98667;
	160	 1	 17.9	 14.6	 0.0	 0.0	 1	    1.07276	  -10.83389	 225.0	 1	    1.08889	    1.00000;
	161	 1	 0.0	 0.0	 0.0	 0.0	 1	    1.06647	  -39.72419	 225.0	 1	    1.08444	    1.00444;
	162	 1	 0.0	 0.0	 0.0	 0.0	 1	    1.06647	  -39.72419	 225.0	 1	    1.08444	    1.00444;
	163	 1	 0.0	 0.0	 0.0	 0.0	 1	    1.06648	  -39.72439	 225.0	 1	    1.08444	    1.00444;
	164	 1	 96.9	 -7.4	 0.0	 0.0	 1	    1.06647	  -39.72417	 225.0	 1	    1.08444	    1.00444;
	165	 1	 0.0	 0.0	 0.0	 0.0	 1	    1.05432	   -8.04336	 225.0	 1	    1.08889	    0.93333;
	166	 1	 8.5	 -5.2	 0.0	 0.0	 1	    1.07615	  -11.86628	 225.0	 1	    1.08889	    0.98667;
	167	 1	 0.0	 0.0	 0.0	 0.0	 1	    1.08499	   -5.76660	 225.0	 1	    1.08941	    1.00000;
	168	 1	 0.0	 0.0	 0.0	 0.0	 1	    1.09773	   -3.87031	 380.0	 1	    1.10526	    1.05263;
	169	 2	 0.0	 0.0	 0.0	 0.0	 1	    1.08940	   -3.22052	 225.0	 1	    1.10000	    0.90000;
	170	 1	 13.0	 4.0	 0.0	 0.0	 1	    1.07194	   -5.30159	 150.0	 1	    1.08000	    0.96667;
	171	 1	 50.4	 4.5	 0.0	 0.0	 1	    1.06738	  -18.18439	 225.0	 1	    1.08889	    1.00444;
	172	 1	 0.4	 0.6	 0.0	 0.0	 1	    1.06767	  -18.10471	 225.0	 1	    1.08889	    1.00444;
	173	 1	 29.1	 -7.9	 0.0	 0.0	 1	    1.08129	   -4.36200	 225.0	 1	    1.08889	    0.88889;
	175	 1	 0.0	 0.0	 0.0	 0.0	 1	    1.08451	   -5.48344	 225.0	 1	    1.09176	    1.00000;
	176	 1	 0.0	 0.0	 0.0	 0.0	 1	    1.08451	   -5.48211	 225.0	 1	    1.09176	    1.00000;
	177	 1	 0.0	 0.0	 0.0	 0.0	 1	    1.08451	   -5.48211	 225.0	 1	    1.09176	    1.00000;
	178	 1	 0.0	 0.0	 0.0	 0.0	 1	    1.08456	   -5.48297	 225.0	 1	    1.09176	    1.00000;
	179	 1	 0.0	 0.0	 0.0	 0.0	 1	    1.08456	   -5.48297	 225.0	 1	    1.09176	    1.00000;
	180	 2	 0.0	 0.0	 0.0	 0.0	 1	    1.09566	   -2.44122	 380.0	 1	    1.10676	    0.90000;
	181	 1	 181.5	 39.9	 0.0	 0.0	 1	    1.05510	  -13.57010	 225.0	 1	    1.08889	    1.00000;
	182	 1	 32.0	 21.4	 0.0	 0.0	 1	    1.07670	   -6.55230	 225.0	 1	    1.08889	    0.98667;
	183	 1	 0.0	 0.0	 0.0	 0.0	 1	    1.09017	   -0.83055	 380.0	 1	    1.10526	    1.03947;
	184	 1	 0.0	 0.0	 0.0	 0.0	 1	    1.08982	   -0.73048	 380.0	 1	    1.10526	    1.03947;
	185	 1	 0.0	 0.0	 0.0	 0.0	 1	    1.08983	   -0.73402	 380.0	 1	    1.10526	    1.03947;
	186	 1	 0.0	 0.0	 0.0	 0.0	 1	    1.09016	   -0.84093	 380.0	 1	    1.10526	    1.03947;
	187	 1	 65.9	 23.3	 0.0	 0.0	 1	    1.07685	  -10.35103	 225.0	 1	    1.08889	    0.92444;
	188	 1	 5.4	 1.4	 0.0	 0.0	 1	    1.04993	  -12.00814	 225.0	 1	    1.08889	    0.98667;
	189	 1	 101.7	 -4.3	 0.0	 0.0	 1	    1.06479	  -28.67370	 225.0	 1	    1.08444	    1.00444;
	190	 1	 -6.8	 -0.2	 0.0	 0.0	 1	    1.09413	   -0.54565	 380.0	 1	    1.10263	    1.04211;
	191	 1	 -5.3	 -0.0	 0.0	 0.0	 1	    1.09414	   -0.56335	 380.0	 1	    1.10263	    1.04211;
	192	 1	 0.0	 0.0	 0.0	 0.0	 1	    1.06421	  -18.82030	 225.0	 1	    1.08889	    1.00444;
	193	 1	 0.0	 0.0	 0.0	 0.0	 1	    1.08015	   -5.75357	 225.0	 1	    1.08889	    0.97778;
	194	 1	 0.0	 0.0	 0.0	 0.0	 1	    1.08016	   -5.75364	 225.0	 1	    1.08889	    0.97778;
	195	 1	 135.5	 19.2	 0.0	 0.0	 1	    1.05676	  -11.96718	 225.0	 1	    1.08889	    0.96889;
	196	 1	 0.0	 0.0	 0.0	 0.0	 1	    1.08004	   -4.41667	 225.0	 1	    1.08889	    0.93333;
	197	 1	 0.0	 0.0	 0.0	 0.0	 1	    1.08017	   -4.36392	 225.0	 1	    1.08889	    0.93333;
	198	 1	 98.9	 26.5	 0.0	 0.0	 1	    1.05947	  -26.20216	 225.0	 1	    1.08444	    1.00444;
	199	 1	 299.2	 -25.2	 0.0	 0.0	 1	    1.06252	  -23.32323	 225.0	 1	    1.08444	    1.00444;
	200	 1	 0.0	 0.0	 0.0	 0.0	 1	    1.07745	   -5.65168	 225.0	 1	    1.08889	    0.97778;
	201	 1	 0.0	 0.0	 0.0	 0.0	 1	    1.08438	  -11.72118	 225.0	 1	    1.08444	    1.00444;
	202	 1	 211.2	 31.0	 0.0	 0.0	 1	    1.06161	  -13.46722	 225.0	 1	    1.08889	    0.95111;
	203	 1	 89.7	 19.5	 0.0	 0.0	 1	    1.08414	  -17.06622	 225.0	 1	    1.08889	    1.00444;
	204	 1	 92.2	 26.0	 0.0	 0.0	 1	    1.04944	  -12.09225	 225.0	 1	    1.08889	    0.98667;
	205	 1	 29.6	 2.7	 0.0	 0.0	 1	    1.07649	  -19.85104	 225.0	 1	    1.08444	    1.00889;
	206	 1	 0.0	 0.0	 0.0	 0.0	 1	    1.07749	  -17.60289	 380.0	 1	    1.10263	    1.02895;
	207	 1	 127.0	 40.5	 0.0	 0.0	 1	    1.08400	  -17.36331	 225.0	 1	    1.08889	    1.00444;
	1829	 2	 0.0	 0.0	 0.0	 0.0	 1	    1.06605	   -8.72927	 225.0	 1	    1.07859	    0.95000;
	208	 1	 0.0	 0.0	 0.0	 0.0	 1	    1.06603	   -8.73153	 225.0	 1	    1.08889	    0.88889;
	209	 1	 310.2	 64.5	 0.0	 80.0	 1	    1.06762	  -27.69766	 225.0	 1	    1.08444	    1.00444;
	210	 1	 62.1	 16.8	 0.0	 0.0	 1	    1.07729	   -4.17859	 225.0	 1	    1.09504	    0.98667;
	211	 1	 91.9	 12.1	 0.0	 0.0	 1	    1.07877	   -8.65475	 225.0	 1	    1.08444	    1.00889;
	212	 1	 26.8	 -0.9	 0.0	 0.0	 1	    1.07973	   -8.00394	 225.0	 1	    1.08444	    1.00889;
	213	 1	 133.0	 16.9	 0.0	 0.0	 1	    1.07448	   -5.18070	 225.0	 1	    1.08889	    0.93333;
	215	 1	 0.0	 0.0	 0.0	 0.0	 1	    1.09401	   -0.24777	 380.0	 1	    1.10526	    1.03947;
	216	 1	 95.1	 16.3	 0.0	 0.0	 1	    1.08437	   -5.53171	 380.0	 1	    1.10526	    1.03947;
	217	 1	 0.0	 0.0	 0.0	 0.0	 1	    1.07933	   -4.57226	 225.0	 1	    1.08889	    0.93333;
	218	 1	 0.0	 0.0	 0.0	 0.0	 1	    1.07853	   -4.75881	 225.0	 1	    1.08889	    0.93333;
	219	 1	 34.4	 10.1	 0.0	 0.0	 1	    1.08417	   -3.47894	 225.0	 1	    1.08444	    1.00889;
	220	 1	 2.2	 3.5	 0.0	 0.0	 1	    1.08438	   -3.44943	 225.0	 1	    1.08444	    1.00889;
	221	 1	 -7.5	 -7.3	 0.0	 0.0	 1	    1.08189	   -7.10061	 225.0	 1	    1.08444	    1.00889;
	222	 1	 85.2	 17.1	 0.0	 0.0	 1	    1.06820	  -17.11335	 225.0	 1	    1.08889	    1.00444;
	223	 1	 38.1	 1.2	 0.0	 0.0	 1	    1.07887	   -8.60204	 225.0	 1	    1.08444	    1.00889;
	224	 1	 21.4	 -2.1	 0.0	 0.0	 1	    1.07930	   -8.53910	 225.0	 1	    1.08444	    1.00889;
	225	 1	 7.0	 3.7	 0.0	 0.0	 1	    1.08860	   -9.85162	 150.0	 1	    1.10667	    0.94667;
	1830	 1	 0.0	 0.0	 0.0	 0.0	 1	    1.06575	  -37.95898	 225.0	 1	    1.08444	    1.00444;
	226	 1	 0.0	 0.0	 0.0	 0.0	 1	    1.07219	  -32.97135	 380.0	 1	    1.10263	    1.04211;
	227	 1	 180.4	 -2.0	 0.0	 0.0	 1	    1.07812	  -11.88703	 225.0	 1	    1.09795	    1.00000;
	228	 1	 0.0	 0.0	 0.0	 0.0	 1	    1.07799	   -9.39811	 380.0	 1	    1.10526	    1.05019;
	229	 1	 127.1	 31.0	 0.0	 0.0	 1	    1.08004	   -9.86600	 225.0	 1	    1.08889	    0.91111;
	230	 1	 0.0	 0.0	 0.0	 0.0	 1	    1.09297	   -4.14332	 380.0	 1	    1.10526	    1.00000;
	231	 1	 44.4	 13.2	 0.0	 0.0	 1	    1.07881	  -20.06821	 225.0	 1	    1.08889	    1.00444;
	232	 1	 49.0	 11.1	 0.0	 0.0	 1	    1.03838	  -19.60541	 225.0	 1	    1.08889	    1.00444;
	233	 1	 23.8	 0.4	 0.0	 0.0	 1	    1.08376	  -12.65244	 225.0	 1	    1.08889	    0.98667;
	234	 1	 0.4	 0.5	 0.0	 0.0	 1	    1.08395	  -12.58162	 225.0	 1	    1.08889	    0.98667;
	235	 1	 4.0	 1.0	 0.0	 0.0	 1	    1.08553	  -18.50188	 225.0	 1	    1.08889	    1.00444;
	236	 1	 30.4	 23.5	 0.0	 0.0	 1	    1.08466	  -18.53630	 225.0	 1	    1.08889	    1.00444;
	237	 1	 249.6	 70.0	 0.0	 0.0	 1	    1.04993	  -16.93308	 225.0	 1	    1.08889	    1.00444;
	238	 1	 0.0	 0.0	 0.0	 0.0	 1	    1.05659	  -15.75920	 225.0	 1	    1.08889	    1.00444;
	239	 1	 56.5	 14.2	 0.0	 0.0	 1	    1.08220	  -19.79502	 225.0	 1	    1.08889	    1.00444;
	240	 1	 58.6	 15.7	 0.0	 0.0	 1	    1.08158	  -19.84080	 225.0	 1	    1.08889	    1.00444;
	241	 2	 -50.0	 0.8	 0.0	 0.0	 1	    1.00120	   -0.98750	 20.0	 1	    1.10000	    0.90000;
	242	 1	 0.0	 0.0	 0.0	 0.0	 1	    1.07100	   -6.95674	 150.0	 1	    1.08000	    0.96667;
	243	 1	 -9.2	 0.5	 0.0	 0.0	 1	    1.10762	    0.90054	 380.0	 1	    1.11402	    1.03947;
	244	 1	 28.9	 24.3	 0.0	 0.0	 1	    1.10791	    1.09599	 380.0	 1	    1.11482	    1.03947;
	245	 1	 18.2	 8.4	 0.0	 0.0	 1	    1.10956	    0.82349	 380.0	 1	    1.11264	    1.03947;
	246	 1	 -41.3	 6.5	 0.0	 0.0	 1	    1.10956	    0.82229	 380.0	 1	    1.11483	    1.03947;
	247	 1	 105.5	 26.5	 0.0	 0.0	 1	    1.06620	  -18.45367	 225.0	 1	    1.08889	    1.00444;
	248	 1	 0.0	 0.0	 0.0	 0.0	 1	    1.08889	   -9.43703	 225.0	 1	    1.08889	    1.00000;
	249	 1	 0.0	 0.0	 0.0	 0.0	 1	    1.08864	   -9.78959	 225.0	 1	    1.08889	    1.00000;
	250	 1	 0.0	 0.0	 0.0	 0.0	 1	    1.09845	   -8.98615	 380.0	 1	    1.10526	    1.05019;
	251	 1	 25.5	 1.2	 0.0	 0.0	 1	    1.07431	   -5.23884	 225.0	 1	    1.08889	    0.93333;
	252	 1	 171.9	 30.6	 0.0	 0.0	 1	    1.08223	  -11.16014	 380.0	 1	    1.10526	    1.03537;
	253	 1	 4.2	 0.0	 0.0	 0.0	 1	    1.08028	  -17.40901	 225.0	 1	    1.08889	    1.00444;
	254	 1	 0.0	 0.0	 0.0	 0.0	 1	    1.08134	  -17.34389	 225.0	 1	    1.08889	    1.00444;
	255	 1	 3.8	 7.1	 0.0	 0.0	 1	    1.08055	  -17.65671	 225.0	 1	    1.08889	    1.00444;
	256	 1	 0.0	 0.0	 0.0	 80.0	 1	    1.07680	  -16.91359	 225.0	 1	    1.08889	    1.00444;
	257	 1	 0.0	 0.0	 0.0	 0.0	 1	    1.08098	  -11.71260	 380.0	 1	    1.10526	    1.04211;
	258	 1	 0.0	 0.0	 0.0	 0.0	 1	    1.08050	  -11.79327	 380.0	 1	    1.10526	    1.04211;
	259	 1	 185.6	 81.4	 0.0	 0.0	 1	    1.04574	  -12.64761	 225.0	 1	    1.08889	    0.92889;
	260	 1	 119.0	 80.1	 0.0	 0.0	 1	    1.08427	   -5.53869	 380.0	 1	    1.10526	    1.03947;
	261	 1	 192.7	 31.7	 0.0	 0.0	 1	    1.07517	  -29.23014	 225.0	 1	    1.08444	    1.00444;
	262	 1	 15.3	 3.5	 0.0	 0.0	 1	    1.07751	   -4.93029	 225.0	 1	    1.08889	    0.93333;
	263	 1	 296.4	 84.9	 0.0	 0.0	 1	    1.08647	   -1.34406	 380.0	 1	    1.10526	    1.03947;
	267	 1	 355.7	 111.0	 0.0	 0.0	 1	    1.08300	  -12.02321	 225.0	 1	    1.08444	    1.00444;
	268	 1	 0.0	 0.0	 0.0	 0.0	 1	    1.09461	   -8.92682	 380.0	 1	    1.10263	    1.04211;
	269	 1	 0.0	 0.0	 0.0	 0.0	 1	    1.09463	   -8.92368	 380.0	 1	    1.10263	    1.04211;
	270	 2	 52.3	 16.7	 0.0	 0.0	 1	    1.06846	   -9.06288	 20.0	 1	    1.06846	    0.95000;
	271	 1	 0.0	 0.0	 0.0	 0.0	 1	    1.06848	   -8.96633	 225.0	 1	    1.08889	    0.98667;
	272	 1	 252.4	 112.7	 0.0	 0.0	 1	    1.06098	  -11.98860	 225.0	 1	    1.08889	    0.98667;
	273	 1	 322.8	 48.4	 0.0	 0.0	 1	    1.09046	  -15.92676	 380.0	 1	    1.10263	    1.04211;
	274	 1	 74.3	 48.9	 0.0	 0.0	 1	    1.06501	   -9.86293	 225.0	 1	    1.09611	    0.98667;
	275	 1	 6.3	 1.4	 0.0	 0.0	 1	    1.07537	   -9.44129	 225.0	 1	    1.08889	    1.00444;
	276	 1	 48.0	 8.0	 0.0	 0.0	 1	    1.08754	  -18.69091	 225.0	 1	    1.08889	    1.00444;
	277	 1	 -0.0	 -0.0	 0.0	 0.0	 1	    1.08765	  -18.62677	 225.0	 1	    1.08889	    1.00444;
	278	 1	 0.0	 0.0	 0.0	 0.0	 1	    1.06984	   -5.97393	 20.0	 1	    1.40000	    0.90000;
	279	 1	 45.0	 46.1	 0.0	 0.0	 1	    1.06446	   -5.20121	 225.0	 1	    1.08889	    0.93333;
	280	 1	 253.3	 26.3	 0.0	 0.0	 1	    1.08171	   -1.81538	 380.0	 1	    1.10526	    1.03947;
	281	 1	 0.0	 0.0	 0.0	 0.0	 1	    1.08231	   -6.31314	 225.0	 1	    1.08959	    1.00000;
	282	 1	 0.0	 0.0	 0.0	 0.0	 1	    1.08522	   -5.76930	 225.0	 1	    1.08959	    1.00000;
	283	 1	 0.0	 0.0	 0.0	 0.0	 1	    1.03393	  -11.11714	 150.0	 1	    1.08000	    0.96667;
	284	 1	 40.1	 2.4	 0.0	 0.0	 1	    1.08593	  -18.91575	 225.0	 1	    1.08889	    1.00444;
	285	 1	 110.1	 18.7	 0.0	 0.0	 1	    1.07589	  -17.93142	 225.0	 1	    1.08889	    1.00444;
	286	 1	 120.6	 18.1	 0.0	 0.0	 1	    1.06932	   -6.96113	 225.0	 1	    1.08889	    0.93333;
	287	 1	 35.9	 8.7	 0.0	 0.0	 1	    1.06650	  -15.77846	 225.0	 1	    1.08444	    1.00444;
	288	 1	 24.2	 6.8	 0.0	 0.0	 1	    1.06652	  -15.77740	 225.0	 1	    1.08444	    1.00444;
	289	 1	 75.2	 12.5	 0.0	 0.0	 1	    1.07426	  -16.86419	 225.0	 1	    1.08889	    1.00444;
	290	 1	 176.7	 47.6	 0.0	 0.0	 1	    1.08381	  -12.17780	 225.0	 1	    1.08889	    1.00444;
	291	 1	 0.0	 0.0	 0.0	 0.0	 1	    1.08867	  -10.74190	 380.0	 1	    1.10526	    1.04211;
	292	 1	 0.0	 0.0	 0.0	 0.0	 1	    1.08905	  -10.64449	 380.0	 1	    1.10526	    1.04211;
	293	 1	 0.0	 0.0	 0.0	 0.0	 1	    1.09812	   -8.17545	 380.0	 1	    1.10526	    1.04211;
	294	 1	 0.0	 0.0	 0.0	 0.0	 1	    1.08886	  -10.69319	 380.0	 1	    1.10526	    1.04211;
	295	 1	 317.6	 108.4	 0.0	 325.0	 1	    1.07537	  -29.69659	 225.0	 1	    1.08444	    1.00444;
	296	 1	 0.0	 0.0	 0.0	 0.0	 1	    1.08506	   -6.47458	 380.0	 1	    1.10526	    1.00000;
	297	 1	 63.5	 14.5	 0.0	 80.0	 1	    1.08721	  -19.17817	 225.0	 1	    1.08889	    1.00444;
	298	 1	 0.0	 0.0	 0.0	 0.0	 1	    1.08570	  -18.84829	 225.0	 1	    1.08889	    1.00444;
	299	 1	 0.0	 0.0	 0.0	 0.0	 1	    1.09648	   -2.14185	 380.0	 1	    1.10526	    1.03947;
	300	 1	 0.0	 0.0	 0.0	 0.0	 1	    1.10263	  -13.17913	 380.0	 1	    1.10263	    1.04211;
	301	 1	 0.0	 0.0	 0.0	 0.0	 1	    1.10263	  -13.17908	 380.0	 1	    1.10263	    1.04211;
	302	 1	 0.0	 0.0	 0.0	 0.0	 1	    1.10263	  -13.17903	 380.0	 1	    1.10263	    1.04211;
	303	 1	 342.7	 113.2	 0.0	 0.0	 1	    1.04953	  -28.03293	 225.0	 1	    1.08444	    1.00444;
	304	 1	 28.9	 -5.7	 0.0	 0.0	 1	    1.11045	    1.96949	 380.0	 1	    1.11618	    1.00000;
	305	 1	 -21.4	 7.7	 0.0	 0.0	 1	    1.10987	    1.75625	 380.0	 1	    1.11703	    1.00000;
	306	 1	 82.8	 19.7	 0.0	 0.0	 1	    1.08641	   -4.77364	 225.0	 1	    1.08889	    0.88889;
	307	 1	 0.0	 0.0	 0.0	 0.0	 1	    1.07750	  -16.17112	 225.0	 1	    1.08889	    1.00444;
	308	 1	 0.0	 0.0	 0.0	 0.0	 1	    1.08368	  -11.65677	 380.0	 1	    1.10526	    1.04211;
	309	 1	 88.4	 -29.1	 0.0	 0.0	 1	    1.08200	  -11.58692	 225.0	 1	    1.09445	    1.00000;
	310	 1	 -12.7	 -1.9	 0.0	 0.0	 1	    1.06546	   -1.78544	 380.0	 1	    1.10263	    1.04211;
	311	 1	 -27.9	 -8.5	 0.0	 0.0	 1	    1.06525	   -1.80971	 380.0	 1	    1.10263	    1.04211;
	312	 1	 1.0	 -8.1	 0.0	 0.0	 1	    1.06378	   -9.24298	 225.0	 1	    1.08895	    0.93333;
	313	 1	 141.2	 17.7	 0.0	 0.0	 1	    1.07496	   -9.75846	 225.0	 1	    1.08889	    1.00444;
	314	 1	 57.4	 17.5	 0.0	 0.0	 1	    1.05989	  -11.74517	 225.0	 1	    1.08889	    0.88889;
	315	 1	 45.8	 6.5	 0.0	 0.0	 1	    1.06023	  -11.73301	 225.0	 1	    1.08889	    0.88889;
	316	 1	 0.0	 0.0	 0.0	 0.0	 1	    1.09709	   -3.05911	 380.0	 1	    1.10526	    1.03947;
	317	 1	 193.1	 70.9	 0.0	 80.0	 1	    1.07646	  -11.45574	 225.0	 1	    1.08889	    1.00000;
	318	 1	 82.1	 17.5	 0.0	 0.0	 1	    1.08756	  -18.68513	 225.0	 1	    1.08889	    1.00444;
	319	 1	 12.5	 3.5	 0.0	 0.0	 1	    1.07246	   -4.99092	 150.0	 1	    1.10667	    0.90000;
	320	 1	 144.2	 2.1	 0.0	 0.0	 1	    1.05941	  -25.37270	 225.0	 1	    1.08576	    1.00444;
	321	 1	 20.2	 -5.0	 0.0	 0.0	 1	    1.07899	  -11.79843	 225.0	 1	    1.08889	    0.98667;
	323	 1	 143.6	 22.9	 0.0	 0.0	 1	    1.04955	  -16.29826	 225.0	 1	    1.08889	    1.00444;
	324	 1	 35.2	 17.8	 0.0	 0.0	 1	    1.01151	  -12.78381	 225.0	 1	    1.08889	    0.93333;
	325	 1	 172.7	 -49.9	 0.0	 0.0	 1	    1.07165	  -41.41815	 225.0	 1	    1.08444	    1.00444;
	326	 1	 48.9	 0.9	 0.0	 0.0	 1	    1.07947	   -8.30071	 225.0	 1	    1.08444	    1.00889;
	327	 1	 34.1	 1.4	 0.0	 0.0	 1	    1.04468	  -14.72270	 20.0	 1	    1.40000	    0.90000;
	328	 1	 45.0	 7.0	 0.0	 0.0	 1	    1.06693	   -5.33370	 225.0	 1	    1.08889	    0.93333;
	329	 1	 95.3	 24.3	 0.0	 0.0	 1	    1.08389	   -4.08881	 225.0	 1	    1.08889	    0.93333;
	330	 1	 102.2	 29.3	 0.0	 0.0	 1	    1.08180	  -19.81199	 225.0	 1	    1.08889	    1.00444;