%%%%%%%%%%%%%%%%%%%%%%%%%%%%%%%%%%%%%%%%%%%%%%%%%%%%%%%%%%%%%%%%%%%%%%%%%%%
%%%%                                                                  %%%%%
%%%%    IEEE PES Power Grid Library - Optimal Power Flow - v17.07     %%%%%
%%%%          (https://github.com/power-grid-lib/pglib-opf)           %%%%%
%%%%             Benchmark Group - Small Angle Difference             %%%%%
%%%%                         27 - June - 2017                         %%%%%
%%%%                                                                  %%%%%
%%%%%%%%%%%%%%%%%%%%%%%%%%%%%%%%%%%%%%%%%%%%%%%%%%%%%%%%%%%%%%%%%%%%%%%%%%%
function mpc = pglib_opf_case1888_rte__sad
mpc.version = '2';
mpc.baseMVA = 100.0;

%% bus data
%	bus_i	type	Pd	Qd	Gs	Bs	area	Vm	Va	baseKV	zone	Vmax	Vmin
mpc.bus = [
	1	 1	 5.8	 -5.8	 0.0	 0.0	 1	    1.03581	  -20.67039	 225.0	 1	    1.08889	    0.88889;
	2	 1	 0.0	 0.0	 0.0	 0.0	 1	    1.05576	   -0.50176	 380.0	 1	    1.10263	    1.04841;
	3	 1	 142.5	 -13.4	 0.0	 0.0	 1	    1.04729	    1.78926	 225.0	 1	    1.08444	    1.00444;
	4	 1	 0.0	 0.0	 0.0	 0.0	 1	    1.05136	  -13.37401	 150.0	 1	    1.10667	    0.90000;
	5	 1	 32.8	 -5.3	 0.0	 0.0	 1	    1.06302	  -14.39173	 225.0	 1	    1.08889	    0.93333;
	6	 1	 40.2	 4.0	 0.0	 0.0	 1	    1.06064	  -14.94291	 225.0	 1	    1.08889	    0.93333;
	7	 1	 0.0	 0.0	 0.0	 0.0	 1	    1.04279	  -12.67336	 380.0	 1	    1.10526	    1.03947;
	8	 1	 0.0	 0.0	 0.0	 0.0	 1	    1.05768	  -12.43589	 380.0	 1	    1.10526	    1.03947;
	9	 1	 0.0	 0.0	 0.0	 0.0	 1	    1.05075	  -16.45177	 225.0	 1	    1.09035	    1.00444;
	10	 1	 148.8	 14.9	 0.0	 0.0	 1	    1.04788	  -18.90611	 225.0	 1	    1.08889	    0.93333;
	11	 1	 25.6	 5.0	 0.0	 0.0	 1	    1.04408	  -18.37929	 225.0	 1	    1.08889	    1.00444;
	12	 1	 39.1	 8.7	 0.0	 0.0	 1	    1.02144	  -19.00362	 225.0	 1	    1.08889	    1.00444;
	13	 1	 70.5	 17.2	 0.0	 0.0	 1	    1.04407	  -18.37643	 225.0	 1	    1.08889	    1.00444;
	14	 1	 36.0	 -4.2	 0.0	 0.0	 1	    1.03437	  -19.01265	 225.0	 1	    1.08252	    0.95000;
	15	 1	 0.0	 0.0	 0.0	 0.0	 1	    1.04755	  -10.71032	 225.0	 1	    1.08889	    1.00444;
	16	 1	 0.0	 0.0	 0.0	 0.0	 1	    1.04755	  -10.71033	 225.0	 1	    1.08889	    1.00444;
	17	 1	 23.7	 -12.4	 0.0	 0.0	 1	    1.03387	  -19.17334	 225.0	 1	    1.08889	    0.88889;
	18	 1	 5.9	 -4.8	 0.0	 0.0	 1	    1.03460	  -19.04270	 225.0	 1	    1.09633	    0.98667;
	19	 1	 34.0	 3.7	 0.0	 0.0	 1	    1.03536	  -18.96116	 225.0	 1	    1.08889	    1.00444;
	20	 1	 6.9	 0.8	 0.0	 0.0	 1	    1.03539	  -18.95886	 225.0	 1	    1.08889	    1.00444;
	21	 1	 9.2	 -29.1	 0.0	 0.0	 1	    1.04660	  -14.81697	 225.0	 1	    1.08889	    1.00444;
	22	 1	 67.7	 -3.6	 0.0	 0.0	 1	    1.04096	  -21.69315	 225.0	 1	    1.08889	    0.98667;
	23	 1	 25.4	 -2.7	 0.0	 0.0	 1	    1.02589	  -22.87678	 225.0	 1	    1.08889	    0.88889;
	25	 1	 64.0	 4.6	 0.0	 0.0	 1	    1.06107	  -15.16475	 225.0	 1	    1.08444	    1.00889;
	27	 1	 71.6	 46.7	 0.0	 0.0	 1	    1.01850	  -13.24290	 225.0	 1	    1.08889	    0.93333;
	28	 1	 105.4	 6.9	 0.0	 0.0	 1	    1.04035	  -16.11499	 225.0	 1	    1.08889	    1.00444;
	29	 1	 0.0	 0.0	 0.0	 0.0	 1	    1.05571	   -0.48558	 380.0	 1	    1.10526	    1.04842;
	30	 1	 0.0	 0.0	 0.0	 0.0	 1	    1.05574	   -0.46603	 380.0	 1	    1.10526	    1.04842;
	31	 1	 21.7	 0.9	 0.0	 0.0	 1	    1.04986	   -3.24636	 225.0	 1	    1.08444	    1.00889;
	33	 1	 68.9	 2.6	 0.0	 0.0	 1	    1.04315	   -4.25607	 225.0	 1	    1.08444	    1.00889;
	34	 1	 50.6	 12.7	 0.0	 0.0	 1	    1.04397	  -18.29392	 225.0	 1	    1.08889	    1.00444;
	35	 1	 17.0	 2.1	 0.0	 0.0	 1	    1.03400	  -13.94028	 150.0	 1	    1.08000	    0.96667;
	36	 1	 38.2	 6.3	 0.0	 0.0	 1	    1.06196	  -14.52947	 225.0	 1	    1.09212	    1.00000;
	37	 1	 0.0	 0.0	 0.0	 0.0	 1	    1.06882	  -11.99460	 380.0	 1	    1.10526	    1.04785;
	38	 1	 89.0	 9.6	 0.0	 0.0	 1	    1.03057	  -23.13036	 225.0	 1	    1.08889	    0.98667;
	2050	 1	 0.0	 0.0	 0.0	 -64.0	 1	    1.02951	  -19.60269	 20.0	 1	    1.50000	    0.80000;
	39	 1	 70.9	 -2.3	 0.0	 0.0	 1	    1.03362	  -18.97603	 225.0	 1	    1.08889	    0.96889;
	40	 1	 136.2	 -10.7	 0.0	 0.0	 1	    1.03846	  -16.20040	 380.0	 1	    1.10526	    1.00000;
	41	 1	 64.6	 17.3	 0.0	 0.0	 1	    1.04150	  -17.48555	 225.0	 1	    1.08889	    0.93333;
	42	 1	 13.4	 3.3	 0.0	 0.0	 1	    1.03105	  -22.52375	 225.0	 1	    1.08889	    0.88889;
	43	 1	 33.3	 4.7	 0.0	 0.0	 1	    1.03087	  -22.56750	 225.0	 1	    1.08889	    0.88889;
	44	 1	 211.6	 -1.3	 0.0	 0.0	 1	    1.05770	   -4.24073	 225.0	 1	    1.08496	    1.00444;
	45	 1	 92.1	 -9.1	 0.0	 0.0	 1	    1.04921	  -15.93262	 225.0	 1	    1.08889	    1.00444;
	46	 2	 0.0	 0.0	 0.0	 0.0	 1	    1.07110	    5.85165	 150.0	 1	    1.10843	    0.90000;
	47	 1	 0.0	 0.0	 0.0	 0.0	 1	    1.02813	  -18.68533	 225.0	 1	    1.08889	    1.00444;
	48	 1	 0.0	 0.0	 0.0	 0.0	 1	    1.02813	  -18.68533	 225.0	 1	    1.08889	    1.00444;
	49	 1	 63.7	 84.5	 0.0	 -80.0	 1	    1.02813	  -18.68532	 225.0	 1	    1.08889	    1.00444;
	50	 1	 10.4	 6.6	 0.0	 0.0	 1	    1.03945	  -16.45538	 225.0	 1	    1.08889	    1.00444;
	51	 1	 0.0	 0.0	 0.0	 0.0	 1	    1.03944	   -4.49059	 225.0	 1	    1.08889	    1.00000;
	52	 1	 68.7	 16.5	 0.0	 0.0	 1	    1.02334	  -23.04951	 225.0	 1	    1.08889	    0.88889;
	53	 1	 101.2	 15.9	 0.0	 0.0	 1	    1.01675	  -20.72634	 225.0	 1	    1.08889	    0.96889;
	54	 1	 0.0	 0.0	 0.0	 0.0	 1	    1.01884	  -18.88149	 380.0	 1	    1.10526	    1.00000;
	55	 1	 28.9	 10.6	 0.0	 0.0	 1	    1.03556	   -3.71349	 225.0	 1	    1.08444	    1.00889;
	56	 1	 28.2	 2.1	 0.0	 0.0	 1	    1.03575	   -3.71488	 225.0	 1	    1.08444	    1.00889;
	1827	 1	 109.6	 -12.9	 0.0	 0.0	 1	    1.04567	  -12.21936	 225.0	 1	    1.08889	    1.00444;
	57	 1	 27.3	 -10.9	 0.0	 0.0	 1	    1.05606	   -4.98440	 225.0	 1	    1.08945	    0.93333;
	58	 2	 0.0	 0.0	 0.0	 0.0	 1	    1.06973	    5.63342	 150.0	 1	    1.10862	    0.90000;
	59	 1	 36.8	 20.3	 0.0	 0.0	 1	    1.03970	   -1.24562	 225.0	 1	    1.08444	    1.00889;
	60	 1	 36.5	 30.8	 0.0	 0.0	 1	    1.03953	   -1.24359	 225.0	 1	    1.08444	    1.00889;
	61	 1	 0.0	 0.0	 0.0	 0.0	 1	    1.04059	   -1.57533	 225.0	 1	    1.08889	    0.97778;
	62	 1	 8.4	 -0.3	 0.0	 0.0	 1	    1.03168	  -20.67217	 225.0	 1	    1.08889	    0.88889;
	63	 1	 13.2	 -6.3	 0.0	 0.0	 1	    1.07248	  -13.96231	 225.0	 1	    1.08889	    0.93333;
	64	 1	 13.2	 3.3	 0.0	 0.0	 1	    1.02099	  -19.14098	 225.0	 1	    1.08889	    1.00444;
	65	 1	 22.7	 2.5	 0.0	 0.0	 1	    1.05087	  -16.50175	 225.0	 1	    1.08889	    1.00444;
	66	 1	 11.4	 -9.7	 0.0	 0.0	 1	    1.04193	   -4.77476	 225.0	 1	    1.08889	    1.00000;
	67	 1	 10.2	 -1.3	 0.0	 0.0	 1	    1.04507	  -16.92259	 225.0	 1	    1.08889	    0.98667;
	68	 1	 0.0	 0.0	 0.0	 0.0	 1	    1.03323	  -22.30348	 225.0	 1	    1.08889	    0.88889;
	69	 1	 0.0	 0.0	 0.0	 0.0	 1	    1.02784	  -22.56155	 225.0	 1	    1.08889	    0.88889;
	70	 1	 0.0	 0.0	 0.0	 0.0	 1	    1.03582	  -20.82662	 380.0	 1	    1.10526	    1.01316;
	71	 1	 39.2	 2.8	 0.0	 0.0	 1	    1.03624	  -19.13182	 225.0	 1	    1.08889	    1.00444;
	72	 1	 19.3	 3.3	 0.0	 -80.0	 1	    1.03497	  -18.48159	 225.0	 1	    1.08889	    1.00444;
	73	 1	 0.0	 0.0	 0.0	 0.0	 1	    1.04201	   -3.50090	 225.0	 1	    1.08889	    0.97778;
	74	 1	 0.0	 0.0	 0.0	 0.0	 1	    1.04201	   -3.49996	 225.0	 1	    1.08889	    0.97778;
	75	 1	 131.9	 3.2	 0.0	 0.0	 1	    1.04107	   -3.98422	 225.0	 1	    1.08444	    1.00889;
	76	 1	 0.0	 0.0	 0.0	 0.0	 1	    1.05339	   -0.06311	 225.0	 1	    1.08444	    1.00444;
	77	 1	 0.0	 0.0	 0.0	 0.0	 1	    1.04926	    4.80248	 380.0	 1	    1.10263	    1.04211;
	78	 1	 94.6	 -1.9	 0.0	 0.0	 1	    1.05331	   -0.11211	 225.0	 1	    1.08444	    1.00444;
	79	 1	 -1.7	 -4.6	 0.0	 0.0	 1	    1.02194	  -18.90766	 225.0	 1	    1.08936	    1.00444;
	80	 1	 3.6	 -7.2	 0.0	 0.0	 1	    1.02194	  -18.91176	 225.0	 1	    1.08936	    1.00444;
	81	 1	 35.4	 10.9	 0.0	 0.0	 1	    1.03027	  -20.76527	 225.0	 1	    1.08889	    0.88889;
	82	 1	 15.1	 0.7	 0.0	 0.0	 1	    1.03020	  -21.14673	 225.0	 1	    1.08124	    0.95000;
	83	 1	 57.4	 18.0	 0.0	 0.0	 1	    1.03268	  -19.05300	 225.0	 1	    1.08889	    0.88889;
	84	 1	 89.9	 -5.8	 0.0	 0.0	 1	    1.05120	   -1.55609	 225.0	 1	    1.08889	    1.00000;
	85	 1	 0.0	 0.0	 0.0	 0.0	 1	    1.03567	   -7.57462	 225.0	 1	    1.08889	    1.00000;
	86	 1	 239.8	 17.5	 0.0	 0.0	 1	    1.07409	   -7.56196	 380.0	 1	    1.10526	    1.05070;
	87	 1	 35.5	 16.0	 0.0	 0.0	 1	    1.05726	   -7.92953	 225.0	 1	    1.08889	    1.00000;
	88	 1	 76.1	 23.0	 0.0	 0.0	 1	    1.05690	   -5.53411	 225.0	 1	    1.08889	    1.00000;
	89	 2	 0.0	 0.0	 0.0	 0.0	 1	    1.02043	   -9.32111	 150.0	 1	    1.10000	    0.90000;
	90	 1	 21.3	 12.0	 0.0	 0.0	 1	    1.02093	  -18.54228	 225.0	 1	    1.08889	    0.98667;
	91	 1	 11.2	 -5.2	 0.0	 0.0	 1	    1.03535	   -5.80071	 225.0	 1	    1.08444	    1.00889;
	92	 1	 0.0	 0.0	 0.0	 0.0	 1	    1.04616	  -10.36683	 380.0	 1	    1.10526	    1.04211;
	93	 1	 0.0	 0.0	 0.0	 0.0	 1	    1.04609	  -10.35161	 380.0	 1	    1.10526	    1.04211;
	96	 1	 11.7	 1.3	 0.0	 0.0	 1	    1.05223	   -1.47970	 225.0	 1	    1.08889	    1.00000;
	97	 1	 6.1	 1.4	 0.0	 0.0	 1	    1.04959	  -12.69123	 225.0	 1	    1.08889	    1.00444;
	98	 1	 31.6	 2.6	 0.0	 0.0	 1	    1.05713	    2.89899	 150.0	 1	    1.10000	    0.90000;
	99	 1	 68.9	 -11.7	 0.0	 0.0	 1	    1.05856	   -6.83181	 225.0	 1	    1.08889	    1.00000;
	100	 2	 0.2	 -0.0	 0.0	 0.0	 1	    1.03540	  -18.95393	 225.0	 1	    1.08294	    0.95000;
	101	 1	 0.0	 0.0	 0.0	 0.0	 1	    1.06272	  -14.47899	 225.0	 1	    1.08889	    0.93333;
	102	 1	 0.0	 0.0	 0.0	 0.0	 1	    1.05811	  -12.39496	 380.0	 1	    1.10526	    1.03947;
	103	 1	 0.0	 0.0	 0.0	 0.0	 1	    1.04248	  -12.63573	 380.0	 1	    1.10526	    1.03947;
	104	 1	 0.0	 0.0	 0.0	 0.0	 1	    1.04431	  -18.36453	 225.0	 1	    1.08889	    1.00444;
	1828	 1	 30.1	 3.8	 0.0	 0.0	 1	    1.03547	  -20.41526	 225.0	 1	    1.08889	    1.00444;
	105	 1	 0.0	 0.0	 0.0	 0.0	 1	    1.02034	  -19.96927	 225.0	 1	    1.08889	    0.98667;
	106	 1	 12.1	 4.5	 0.0	 0.0	 1	    1.04416	  -18.37283	 225.0	 1	    1.08889	    1.00444;
	107	 1	 106.1	 -0.3	 0.0	 0.0	 1	    1.03486	  -11.60362	 225.0	 1	    1.08889	    0.93333;
	108	 1	 0.0	 0.0	 0.0	 0.0	 1	    1.05099	   -9.73905	 380.0	 1	    1.10526	    1.03947;
	109	 1	 43.3	 8.4	 0.0	 0.0	 1	    1.05384	    0.11702	 225.0	 1	    1.08889	    1.00000;
	110	 1	 33.2	 -7.5	 0.0	 0.0	 1	    1.05081	  -15.43792	 225.0	 1	    1.08986	    1.00444;
	111	 1	 99.5	 -12.4	 0.0	 0.0	 1	    1.07263	   -8.78472	 225.0	 1	    1.09612	    1.00000;
	112	 1	 116.4	 -6.7	 0.0	 0.0	 1	    1.03554	  -19.65133	 225.0	 1	    1.08889	    0.98667;
	113	 1	 65.7	 14.7	 0.0	 0.0	 1	    1.05073	  -16.44938	 225.0	 1	    1.09036	    1.00444;
	114	 1	 107.2	 21.2	 0.0	 0.0	 1	    1.02316	  -23.14789	 225.0	 1	    1.08889	    0.92444;
	115	 1	 56.9	 -2.7	 0.0	 0.0	 1	    1.03928	  -16.37356	 225.0	 1	    1.09614	    0.98667;
	117	 1	 0.0	 0.0	 0.0	 0.0	 1	    1.04431	  -15.57118	 380.0	 1	    1.10526	    1.03947;
	119	 1	 123.6	 -19.8	 0.0	 0.0	 1	    1.02034	   -4.33905	 225.0	 1	    1.08444	    1.00444;
	2051	 1	 0.0	 0.0	 0.0	 -64.0	 1	    1.00888	  -14.42072	 20.0	 1	    1.40000	    0.80000;
	120	 1	 33.3	 -21.3	 0.0	 0.0	 1	    1.05940	  -14.14919	 225.0	 1	    1.08444	    1.00889;
	121	 1	 0.0	 0.0	 0.0	 0.0	 1	    1.05612	  -11.90181	 380.0	 1	    1.10263	    1.02895;
	122	 1	 1.7	 -4.4	 0.0	 0.0	 1	    1.03540	  -11.62004	 225.0	 1	    1.08889	    0.93333;
	123	 1	 140.3	 17.3	 0.0	 0.0	 1	    1.02219	  -13.47303	 225.0	 1	    1.08889	    0.93333;
	124	 1	 33.7	 -1.8	 0.0	 0.0	 1	    1.07697	  -13.67788	 63.0	 1	    1.07937	    0.92063;
	125	 2	 0.0	 0.0	 0.0	 0.0	 1	    1.04102	   -6.86213	 225.0	 1	    1.07476	    0.95000;
	126	 1	 -1.9	 -5.4	 0.0	 0.0	 1	    1.05956	    7.71141	 225.0	 1	    1.09768	    1.00000;
	127	 1	 0.0	 0.0	 0.0	 0.0	 1	    1.05406	    7.74958	 380.0	 1	    1.10526	    1.05263;
	128	 1	 0.0	 0.0	 0.0	 0.0	 1	    1.05419	    7.75305	 380.0	 1	    1.10526	    1.05263;
	129	 1	 0.0	 0.0	 0.0	 0.0	 1	    1.05418	    7.75677	 380.0	 1	    1.10526	    1.05263;
	130	 1	 0.0	 0.0	 0.0	 0.0	 1	    1.05419	    7.74057	 380.0	 1	    1.10526	    1.05263;
	131	 1	 0.0	 0.0	 0.0	 0.0	 1	    1.03915	  -16.29116	 225.0	 1	    1.09645	    0.98667;
	132	 1	 0.0	 0.0	 0.0	 0.0	 1	    1.03919	  -16.26328	 225.0	 1	    1.09645	    0.98667;
	133	 1	 0.0	 0.0	 0.0	 0.0	 1	    1.04364	  -15.42951	 380.0	 1	    1.10526	    1.03947;
	134	 1	 77.3	 -10.6	 0.0	 0.0	 1	    1.03401	  -20.35718	 225.0	 1	    1.08889	    0.96889;
	135	 1	 28.1	 3.8	 0.0	 0.0	 1	    1.06088	  -15.12893	 225.0	 1	    1.08444	    1.00889;
	136	 1	 -5.2	 -9.4	 0.0	 0.0	 1	    1.05197	  -15.96408	 380.0	 1	    1.10526	    1.03947;
	137	 1	 106.4	 8.0	 0.0	 0.0	 1	    1.04414	  -12.20423	 225.0	 1	    1.08889	    0.93333;
	138	 1	 0.0	 0.0	 0.0	 0.0	 1	    1.04107	   -8.81811	 380.0	 1	    1.10526	    1.03947;
	140	 1	 113.7	 -8.3	 0.0	 0.0	 1	    1.03027	   -4.06024	 225.0	 1	    1.08444	    1.00889;
	141	 1	 44.6	 0.5	 0.0	 0.0	 1	    1.03319	   -4.02838	 225.0	 1	    1.08444	    1.00889;
	142	 1	 165.2	 -11.8	 0.0	 0.0	 1	    1.03977	    2.09841	 225.0	 1	    1.08444	    1.00444;
	143	 1	 29.2	 2.1	 0.0	 0.0	 1	    1.04682	  -12.60299	 225.0	 1	    1.08889	    0.93333;
	144	 1	 32.8	 4.4	 0.0	 0.0	 1	    1.04679	  -12.60748	 225.0	 1	    1.08889	    0.93333;
	145	 1	 19.0	 -18.1	 0.0	 0.0	 1	    1.05080	  -15.42156	 225.0	 1	    1.08952	    1.00444;
	146	 1	 0.0	 0.0	 0.0	 0.0	 1	    1.05299	   -5.65994	 225.0	 1	    1.09478	    1.00000;
	147	 1	 0.0	 0.0	 0.0	 0.0	 1	    1.05299	   -5.65992	 225.0	 1	    1.09478	    1.00000;
	148	 1	 37.1	 5.6	 0.0	 0.0	 1	    1.05127	   -1.26540	 225.0	 1	    1.08889	    1.00000;
	149	 1	 20.0	 -3.9	 0.0	 0.0	 1	    1.04959	  -12.61570	 225.0	 1	    1.08889	    1.00444;
	150	 1	 38.1	 1.6	 0.0	 0.0	 1	    1.02476	   -5.95425	 225.0	 1	    1.08444	    1.00889;
	151	 1	 24.8	 -1.8	 0.0	 0.0	 1	    1.05023	   -2.11218	 225.0	 1	    1.08889	    1.00000;
	152	 1	 0.0	 0.0	 0.0	 0.0	 1	    1.04766	   -9.08964	 225.0	 1	    1.08444	    1.00889;
	153	 1	 0.0	 0.0	 0.0	 0.0	 1	    1.04765	   -9.09335	 225.0	 1	    1.08444	    1.00889;
	154	 1	 0.0	 0.0	 0.0	 0.0	 1	    1.04641	   -4.26647	 225.0	 1	    1.08444	    1.00889;
	155	 1	 0.0	 0.0	 0.0	 0.0	 1	    1.04940	   -3.22990	 380.0	 1	    1.10263	    1.02895;
	156	 1	 155.3	 26.5	 0.0	 0.0	 1	    1.03484	  -18.60508	 225.0	 1	    1.08889	    0.88889;
	157	 1	 0.0	 0.0	 0.0	 0.0	 1	    1.05955	    7.71156	 225.0	 1	    1.09766	    1.00000;
	158	 1	 0.0	 0.0	 0.0	 0.0	 1	    1.05414	    7.67234	 380.0	 1	    1.10526	    1.05263;
	159	 1	 21.5	 4.4	 0.0	 0.0	 1	    1.04507	  -17.91959	 225.0	 1	    1.08889	    0.98667;
	160	 1	 26.2	 2.1	 0.0	 0.0	 1	    1.05553	   -6.32211	 225.0	 1	    1.08889	    1.00000;
	161	 1	 0.0	 0.0	 0.0	 0.0	 1	    1.05287	  -10.39989	 225.0	 1	    1.08444	    1.00444;
	162	 1	 0.0	 0.0	 0.0	 0.0	 1	    1.05287	  -10.39989	 225.0	 1	    1.08444	    1.00444;
	163	 1	 0.0	 0.0	 0.0	 0.0	 1	    1.05288	  -10.40008	 225.0	 1	    1.08444	    1.00444;
	164	 1	 55.3	 -11.4	 0.0	 0.0	 1	    1.05287	  -10.39986	 225.0	 1	    1.08444	    1.00444;
	165	 1	 0.0	 0.0	 0.0	 0.0	 1	    1.01756	  -13.15621	 225.0	 1	    1.08889	    0.93333;
	166	 1	 30.0	 12.3	 0.0	 0.0	 1	    1.03482	  -16.70389	 225.0	 1	    1.08889	    0.98667;
	2019	 1	 0.0	 0.0	 0.0	 -64.0	 1	    0.96440	   -6.25411	 20.0	 1	    1.40000	    0.90000;
	167	 1	 0.0	 0.0	 0.0	 0.0	 1	    1.04975	   -5.81554	 225.0	 1	    1.08941	    1.00000;
	168	 1	 0.0	 0.0	 0.0	 0.0	 1	    1.05813	   -2.93944	 380.0	 1	    1.10526	    1.05263;
	169	 2	 0.0	 0.0	 0.0	 0.0	 1	    1.06684	  -14.33528	 225.0	 1	    1.10000	    0.90000;
	170	 1	 17.8	 2.6	 0.0	 0.0	 1	    1.03297	  -14.30697	 150.0	 1	    1.08000	    0.96667;
	171	 1	 25.3	 -3.2	 0.0	 0.0	 1	    1.03575	  -18.89708	 225.0	 1	    1.08889	    1.00444;
	172	 1	 -3.7	 -2.0	 0.0	 0.0	 1	    1.03610	  -18.85438	 225.0	 1	    1.08889	    1.00444;
	173	 1	 37.3	 0.7	 0.0	 0.0	 1	    1.02451	  -20.25826	 225.0	 1	    1.08889	    0.88889;
	181	 1	 107.9	 3.9	 0.0	 0.0	 1	    1.05023	   -2.09017	 225.0	 1	    1.08889	    1.00000;
	182	 1	 29.5	 6.8	 0.0	 0.0	 1	    1.03808	  -18.85190	 225.0	 1	    1.08889	    0.98667;
	183	 1	 0.0	 0.0	 0.0	 0.0	 1	    1.03947	   -7.67066	 380.0	 1	    1.10526	    1.03947;
	184	 1	 0.0	 0.0	 0.0	 0.0	 1	    1.04069	   -7.26170	 380.0	 1	    1.10526	    1.03947;
	185	 1	 0.0	 0.0	 0.0	 0.0	 1	    1.04058	   -7.26502	 380.0	 1	    1.10526	    1.03947;
	186	 1	 0.0	 0.0	 0.0	 0.0	 1	    1.03964	   -7.71276	 380.0	 1	    1.10526	    1.03947;
	187	 1	 28.1	 -10.0	 0.0	 0.0	 1	    1.03480	  -21.21528	 225.0	 1	    1.08889	    0.92444;
	188	 1	 -2.0	 -1.1	 0.0	 0.0	 1	    1.03473	  -22.88280	 225.0	 1	    1.08889	    0.98667;
	189	 1	 65.8	 19.1	 0.0	 0.0	 1	    1.04034	   -9.45620	 225.0	 1	    1.08444	    1.00444;
	190	 1	 -2.3	 1.2	 0.0	 0.0	 1	    1.04559	   -8.71016	 380.0	 1	    1.10263	    1.04211;
	191	 1	 -2.3	 1.4	 0.0	 0.0	 1	    1.04565	   -8.71494	 380.0	 1	    1.10263	    1.04211;
	192	 1	 0.0	 0.0	 0.0	 0.0	 1	    1.03599	  -19.27351	 225.0	 1	    1.08889	    1.00444;
	193	 1	 0.0	 0.0	 0.0	 0.0	 1	    1.05024	   -3.95412	 225.0	 1	    1.08889	    0.97778;
	194	 1	 0.0	 0.0	 0.0	 0.0	 1	    1.05025	   -3.95420	 225.0	 1	    1.08889	    0.97778;
	195	 1	 83.6	 -8.6	 0.0	 0.0	 1	    1.03318	  -20.93720	 225.0	 1	    1.08889	    0.96889;
	196	 1	 0.0	 0.0	 0.0	 0.0	 1	    1.03063	   -7.68606	 225.0	 1	    1.08889	    0.93333;
	197	 1	 0.0	 0.0	 0.0	 0.0	 1	    1.03066	   -7.66160	 225.0	 1	    1.08889	    0.93333;
	198	 1	 57.5	 10.2	 0.0	 0.0	 1	    1.04427	   -4.51590	 225.0	 1	    1.08444	    1.00444;
	199	 1	 177.4	 -31.4	 0.0	 0.0	 1	    1.05440	   -2.07603	 225.0	 1	    1.08444	    1.00444;
	200	 1	 0.0	 0.0	 0.0	 0.0	 1	    1.03969	   -4.44992	 225.0	 1	    1.08889	    0.97778;
	201	 1	 0.0	 0.0	 0.0	 0.0	 1	    1.04444	   -5.43192	 225.0	 1	    1.08444	    1.00444;
	202	 1	 124.2	 -3.2	 0.0	 0.0	 1	    1.03605	  -21.48390	 225.0	 1	    1.08889	    0.95111;
	203	 1	 35.3	 1.9	 0.0	 0.0	 1	    1.03548	  -18.44568	 225.0	 1	    1.08889	    1.00444;
	204	 1	 51.6	 -4.0	 0.0	 0.0	 1	    1.03555	  -22.91026	 225.0	 1	    1.08889	    0.98667;
	2086	 1	 0.0	 0.0	 0.0	 -64.0	 1	    1.00343	  -14.89201	 20.0	 1	    1.40000	    0.80000;
	205	 1	 16.9	 -1.8	 0.0	 0.0	 1	    1.05242	  -14.49541	 225.0	 1	    1.08444	    1.00889;
	206	 1	 0.0	 0.0	 0.0	 0.0	 1	    1.05558	  -12.68878	 380.0	 1	    1.10263	    1.02895;
	207	 1	 38.6	 -0.7	 0.0	 0.0	 1	    1.03547	  -18.54673	 225.0	 1	    1.08889	    1.00444;
	1829	 2	 0.0	 0.0	 0.0	 0.0	 1	    1.02869	  -20.23394	 225.0	 1	    1.07859	    0.95000;
	208	 1	 0.0	 0.0	 0.0	 0.0	 1	    1.02868	  -20.23642	 225.0	 1	    1.08889	    0.88889;
	209	 1	 171.1	 24.7	 0.0	 0.0	 1	    1.04395	   -1.93141	 225.0	 1	    1.08444	    1.00444;
	210	 1	 46.3	 14.3	 0.0	 0.0	 1	    1.03352	  -18.76613	 225.0	 1	    1.09504	    0.98667;
	211	 1	 58.6	 9.8	 0.0	 0.0	 1	    1.04255	   -4.74945	 225.0	 1	    1.08444	    1.00889;
	212	 1	 14.6	 -0.7	 0.0	 0.0	 1	    1.04312	   -4.26437	 225.0	 1	    1.08444	    1.00889;
	213	 1	 75.4	 25.3	 0.0	 0.0	 1	    1.02886	   -8.02272	 225.0	 1	    1.08889	    0.93333;
	215	 1	 0.0	 0.0	 0.0	 0.0	 1	    1.05017	   -4.14182	 380.0	 1	    1.10526	    1.03947;
	216	 1	 74.9	 -2.9	 0.0	 0.0	 1	    1.05438	  -16.62238	 380.0	 1	    1.10526	    1.03947;
	217	 1	 0.0	 0.0	 0.0	 0.0	 1	    1.03051	   -7.70123	 225.0	 1	    1.08889	    0.93333;
	218	 1	 0.0	 0.0	 0.0	 0.0	 1	    1.03051	   -7.69913	 225.0	 1	    1.08889	    0.93333;
	219	 1	 55.6	 14.5	 0.0	 0.0	 1	    1.03903	   -1.31893	 225.0	 1	    1.08444	    1.00889;
	220	 1	 -0.1	 0.8	 0.0	 0.0	 1	    1.03943	   -1.26373	 225.0	 1	    1.08444	    1.00889;
	221	 1	 11.0	 -0.4	 0.0	 0.0	 1	    1.04368	   -3.86303	 225.0	 1	    1.08444	    1.00889;
	222	 1	 39.3	 5.6	 0.0	 0.0	 1	    1.04132	   -7.67054	 225.0	 1	    1.08889	    1.00444;
	223	 1	 21.6	 1.4	 0.0	 0.0	 1	    1.04254	   -4.70745	 225.0	 1	    1.08444	    1.00889;
	224	 1	 16.7	 2.3	 0.0	 0.0	 1	    1.04290	   -4.66439	 225.0	 1	    1.08444	    1.00889;
	225	 1	 2.0	 -1.4	 0.0	 0.0	 1	    1.03672	  -21.33301	 150.0	 1	    1.10667	    0.94667;
	1830	 1	 0.0	 0.0	 0.0	 0.0	 1	    1.06322	   -8.75018	 225.0	 1	    1.08444	    1.00444;
	226	 1	 0.0	 0.0	 0.0	 0.0	 1	    1.06100	   -5.56570	 380.0	 1	    1.10263	    1.04211;
	227	 1	 119.3	 -16.4	 0.0	 0.0	 1	    1.07124	   -8.05790	 225.0	 1	    1.09795	    1.00000;
	228	 1	 0.0	 0.0	 0.0	 0.0	 1	    1.05835	   -4.69762	 380.0	 1	    1.10526	    1.05019;
	229	 1	 72.1	 6.0	 0.0	 0.0	 1	    1.03418	  -20.97510	 225.0	 1	    1.08889	    0.91111;
	230	 1	 0.0	 0.0	 0.0	 0.0	 1	    1.03783	  -19.01854	 380.0	 1	    1.10526	    1.00000;
	231	 1	 16.1	 1.9	 0.0	 0.0	 1	    1.04431	  -18.36619	 225.0	 1	    1.08889	    1.00444;
	232	 1	 14.9	 0.9	 0.0	 0.0	 1	    1.03550	  -20.41221	 225.0	 1	    1.08889	    1.00444;
	233	 1	 6.1	 1.7	 0.0	 0.0	 1	    1.04665	  -17.56626	 225.0	 1	    1.08889	    0.98667;
	234	 1	 1.1	 1.7	 0.0	 0.0	 1	    1.04669	  -17.55004	 225.0	 1	    1.08889	    0.98667;
	235	 1	 2.0	 -3.9	 0.0	 0.0	 1	    1.04790	  -16.06459	 225.0	 1	    1.08889	    1.00444;
	236	 1	 2.6	 2.4	 0.0	 0.0	 1	    1.04770	  -16.06317	 225.0	 1	    1.08889	    1.00444;
	237	 1	 129.0	 -3.4	 0.0	 0.0	 1	    1.03842	  -19.22259	 225.0	 1	    1.08889	    1.00444;
	238	 1	 0.0	 0.0	 0.0	 0.0	 1	    1.04084	  -19.00232	 225.0	 1	    1.08889	    1.00444;
	239	 1	 25.8	 4.4	 0.0	 0.0	 1	    1.04807	  -16.75158	 225.0	 1	    1.08889	    1.00444;
	240	 1	 31.9	 3.6	 0.0	 0.0	 1	    1.04777	  -16.77747	 225.0	 1	    1.08889	    1.00444;
	241	 2	 4.3	 -1.0	 0.0	 0.0	 1	    0.96884	   -2.86736	 20.0	 1	    1.10000	    0.90000;
	242	 1	 0.0	 0.0	 0.0	 0.0	 1	    1.04754	   -5.59598	 150.0	 1	    1.08000	    0.96667;
	243	 1	 -3.4	 -9.5	 0.0	 0.0	 1	    1.04192	  -14.44884	 380.0	 1	    1.11402	    1.03947;
	244	 1	 30.9	 7.4	 0.0	 0.0	 1	    1.04605	  -15.80785	 380.0	 1	    1.11482	    1.03947;
	245	 1	 11.7	 0.6	 0.0	 0.0	 1	    1.03957	  -14.61710	 380.0	 1	    1.11264	    1.03947;
	246	 1	 -18.3	 -23.8	 0.0	 0.0	 1	    1.03947	  -14.53433	 380.0	 1	    1.11483	    1.03947;
	247	 1	 45.0	 5.3	 0.0	 0.0	 1	    1.03524	  -19.00509	 225.0	 1	    1.08889	    1.00444;
	2029	 1	 0.0	 0.0	 0.0	 -64.0	 1	    0.96885	   -5.31267	 20.0	 1	    1.40000	    0.90000;
	2030	 1	 0.0	 0.0	 0.0	 -64.0	 1	    0.96751	   -5.34591	 20.0	 1	    1.40000	    0.90000;
	248	 1	 0.0	 0.0	 0.0	 0.0	 1	    1.05608	   -5.20156	 225.0	 1	    1.08889	    1.00000;
	249	 1	 0.0	 0.0	 0.0	 0.0	 1	    1.05590	   -5.24563	 225.0	 1	    1.08889	    1.00000;
	250	 1	 0.0	 0.0	 0.0	 0.0	 1	    1.07348	   -4.19959	 380.0	 1	    1.10526	    1.05019;
	251	 1	 0.7	 -3.7	 0.0	 0.0	 1	    1.02905	   -8.02610	 225.0	 1	    1.08889	    0.93333;
	252	 1	 92.9	 -6.0	 0.0	 0.0	 1	    1.04856	  -16.46135	 380.0	 1	    1.10526	    1.03537;
	2025	 1	 0.0	 0.0	 0.0	 -58.0	 1	    0.98059	  -18.22453	 20.0	 1	    1.40000	    0.90000;
	2031	 1	 0.0	 0.0	 0.0	 -128.0	 1	    0.94859	  -17.49864	 20.0	 1	    1.40000	    0.90000;
	2032	 1	 0.0	 0.0	 0.0	 -58.0	 1	    0.97219	  -17.73569	 20.0	 1	    1.40000	    0.90000;
	2046	 1	 0.0	 0.0	 0.0	 -58.0	 1	    0.97526	  -17.83760	 20.0	 1	    1.40000	    0.90000;
	253	 1	 3.2	 -0.8	 0.0	 0.0	 1	    1.03637	  -16.94348	 225.0	 1	    1.08889	    1.00444;
	254	 1	 3.9	 3.0	 0.0	 0.0	 1	    1.03905	  -17.04976	 225.0	 1	    1.08889	    1.00444;
	255	 1	 0.0	 0.0	 0.0	 0.0	 1	    1.04470	  -15.92210	 225.0	 1	    1.08889	    1.00444;
	257	 1	 0.0	 0.0	 0.0	 0.0	 1	    1.04225	  -13.93985	 380.0	 1	    1.10526	    1.04211;
	258	 1	 0.0	 0.0	 0.0	 0.0	 1	    1.04211	  -14.05861	 380.0	 1	    1.10526	    1.04211;
	259	 1	 106.5	 20.7	 0.0	 0.0	 1	    1.03707	  -21.50989	 225.0	 1	    1.08889	    0.92889;
	260	 1	 157.5	 -28.3	 0.0	 0.0	 1	    1.05440	  -16.63263	 380.0	 1	    1.10526	    1.03947;
	261	 1	 91.4	 -3.2	 0.0	 0.0	 1	    1.02775	    0.38819	 225.0	 1	    1.08444	    1.00444;
	262	 1	 5.5	 -1.3	 0.0	 0.0	 1	    1.02993	   -8.13949	 225.0	 1	    1.08889	    0.93333;
	263	 1	 208.0	 14.9	 0.0	 0.0	 1	    1.04180	   -7.82603	 380.0	 1	    1.10526	    1.03947;
	267	 1	 250.6	 22.2	 0.0	 0.0	 1	    1.04154	   -5.68171	 225.0	 1	    1.08444	    1.00444;
	268	 1	 0.0	 0.0	 0.0	 0.0	 1	    1.04211	   -2.17443	 380.0	 1	    1.10263	    1.04211;
	269	 1	 0.0	 0.0	 0.0	 0.0	 1	    1.04212	   -2.17076	 380.0	 1	    1.10263	    1.04211;
	270	 2	 46.4	 27.4	 0.0	 0.0	 1	    1.02382	  -20.75368	 20.0	 1	    1.06846	    0.95000;
	271	 1	 0.0	 0.0	 0.0	 0.0	 1	    1.02967	  -20.92733	 225.0	 1	    1.08889	    0.98667;
	272	 1	 159.3	 40.7	 0.0	 0.0	 1	    1.03046	  -17.26128	 225.0	 1	    1.08889	    0.98667;
	273	 1	 203.1	 3.9	 0.0	 0.0	 1	    1.05379	    1.15545	 380.0	 1	    1.10263	    1.04211;
	274	 1	 50.0	 8.3	 0.0	 0.0	 1	    1.04666	  -19.29382	 225.0	 1	    1.09611	    0.98667;
	275	 1	 17.6	 -2.4	 0.0	 0.0	 1	    1.04953	  -13.88086	 225.0	 1	    1.08889	    1.00444;
	276	 1	 22.7	 -2.9	 0.0	 0.0	 1	    1.02821	  -18.77586	 225.0	 1	    1.08889	    1.00444;
	278	 1	 0.0	 0.0	 0.0	 0.0	 1	    1.06385	  -10.83573	 20.0	 1	    1.40000	    0.90000;
	279	 1	 36.2	 -22.3	 0.0	 0.0	 1	    1.05352	  -10.35353	 225.0	 1	    1.08889	    0.93333;
	280	 1	 169.5	 24.1	 0.0	 0.0	 1	    1.04544	   -8.10896	 380.0	 1	    1.10526	    1.03947;
	281	 1	 0.0	 0.0	 0.0	 0.0	 1	    1.04788	   -6.51193	 225.0	 1	    1.08959	    1.00000;
	282	 1	 0.0	 0.0	 0.0	 0.0	 1	    1.04998	   -5.81824	 225.0	 1	    1.08959	    1.00000;
	283	 1	 0.0	 0.0	 0.0	 0.0	 1	    1.01763	   -9.77651	 150.0	 1	    1.08000	    0.96667;
	284	 1	 25.8	 -6.7	 0.0	 0.0	 1	    1.04983	  -16.32832	 225.0	 1	    1.08889	    1.00444;
	285	 1	 65.6	 -1.0	 0.0	 0.0	 1	    1.03928	  -16.74949	 225.0	 1	    1.08889	    1.00444;
	286	 1	 52.2	 0.8	 0.0	 0.0	 1	    1.05469	  -17.01570	 225.0	 1	    1.08889	    0.93333;
	287	 1	 19.7	 -0.8	 0.0	 0.0	 1	    1.03521	   -8.59429	 225.0	 1	    1.08444	    1.00444;
	288	 1	 17.6	 2.0	 0.0	 0.0	 1	    1.03521	   -8.59402	 225.0	 1	    1.08444	    1.00444;
	289	 1	 58.8	 -0.8	 0.0	 0.0	 1	    1.04026	  -16.19008	 225.0	 1	    1.08889	    1.00444;
	2062	 1	 0.0	 0.0	 0.0	 -64.0	 1	    0.97986	  -16.88311	 20.0	 1	    1.40000	    0.90000;
	290	 1	 108.4	 -13.2	 0.0	 0.0	 1	    1.03913	  -16.48845	 225.0	 1	    1.08889	    1.00444;
	291	 1	 0.0	 0.0	 0.0	 0.0	 1	    1.04590	  -14.63845	 380.0	 1	    1.10526	    1.04211;
	292	 1	 0.0	 0.0	 0.0	 0.0	 1	    1.04614	  -14.68330	 380.0	 1	    1.10526	    1.04211;
	293	 1	 0.0	 0.0	 0.0	 0.0	 1	    1.05131	  -14.17705	 380.0	 1	    1.10526	    1.04211;
	294	 1	 0.0	 0.0	 0.0	 0.0	 1	    1.04602	  -14.66088	 380.0	 1	    1.10526	    1.04211;
	295	 1	 160.9	 1.6	 0.0	 0.0	 1	    1.02796	   -0.17635	 225.0	 1	    1.08444	    1.00444;
	296	 1	 0.0	 0.0	 0.0	 0.0	 1	    1.03884	  -18.06983	 380.0	 1	    1.10526	    1.00000;
	297	 1	 34.4	 6.6	 0.0	 0.0	 1	    1.05067	  -16.40917	 225.0	 1	    1.08889	    1.00444;
	298	 1	 0.0	 0.0	 0.0	 0.0	 1	    1.02778	  -18.85550	 225.0	 1	    1.08889	    1.00444;
	299	 1	 0.0	 0.0	 0.0	 0.0	 1	    1.04461	   -9.93213	 380.0	 1	    1.10526	    1.03947;
	300	 1	 0.0	 0.0	 0.0	 0.0	 1	    1.04914	    4.85125	 380.0	 1	    1.10263	    1.04211;
	301	 1	 0.0	 0.0	 0.0	 0.0	 1	    1.04918	    4.85225	 380.0	 1	    1.10263	    1.04211;
	302	 1	 0.0	 0.0	 0.0	 0.0	 1	    1.04918	    4.85228	 380.0	 1	    1.10263	    1.04211;
	303	 1	 184.2	 -18.9	 0.0	 0.0	 1	    1.04330	   -2.51965	 225.0	 1	    1.08444	    1.00444;
	304	 1	 -15.6	 -17.2	 0.0	 0.0	 1	    1.03547	  -14.56889	 380.0	 1	    1.11618	    1.00000;
	305	 1	 -23.2	 0.6	 0.0	 0.0	 1	    1.03777	  -15.16755	 380.0	 1	    1.11703	    1.00000;
	306	 1	 42.2	 -0.7	 0.0	 0.0	 1	    1.02580	  -21.57347	 225.0	 1	    1.08889	    0.88889;
	2047	 1	 0.0	 0.0	 0.0	 -64.0	 1	    0.97299	  -16.43277	 20.0	 1	    1.40000	    0.90000;
	307	 1	 0.0	 0.0	 0.0	 0.0	 1	    1.04070	  -15.72279	 225.0	 1	    1.08889	    1.00444;
	308	 1	 0.0	 0.0	 0.0	 0.0	 1	    1.04459	  -12.92383	 380.0	 1	    1.10526	    1.04211;
	309	 1	 96.9	 -28.2	 0.0	 0.0	 1	    1.05937	   -1.39758	 225.0	 1	    1.09445	    1.00000;
	310	 1	 -1.7	 -3.4	 0.0	 0.0	 1	    1.04211	    9.36698	 380.0	 1	    1.10263	    1.04211;
	311	 1	 -10.7	 -3.4	 0.0	 0.0	 1	    1.04211	    9.34027	 380.0	 1	    1.10263	    1.04211;
	312	 1	 -7.2	 -9.3	 0.0	 0.0	 1	    1.03313	  -18.32952	 225.0	 1	    1.08895	    0.93333;
	313	 1	 87.6	 -1.8	 0.0	 0.0	 1	    1.04994	  -13.93902	 225.0	 1	    1.08889	    1.00444;
	314	 1	 32.2	 7.9	 0.0	 0.0	 1	    1.02292	  -22.93840	 225.0	 1	    1.08889	    0.88889;
	315	 1	 28.6	 2.6	 0.0	 0.0	 1	    1.02308	  -22.93506	 225.0	 1	    1.08889	    0.88889;
	316	 1	 0.0	 0.0	 0.0	 0.0	 1	    1.07865	  -11.03839	 380.0	 1	    1.10526	    1.03947;
	317	 1	 141.6	 32.1	 0.0	 0.0	 1	    1.04589	   -1.55693	 225.0	 1	    1.08889	    1.00000;
	318	 1	 30.1	 -3.0	 0.0	 0.0	 1	    1.02829	  -18.75969	 225.0	 1	    1.08889	    1.00444;
	319	 1	 8.2	 4.4	 0.0	 0.0	 1	    1.03504	  -14.82576	 150.0	 1	    1.10667	    0.90000;
	320	 1	 91.6	 8.9	 0.0	 0.0	 1	    1.04604	   -9.89707	 225.0	 1	    1.08576	    1.00444;
	321	 1	 2.9	 -9.7	 0.0	 0.0	 1	    1.04267	  -16.80641	 225.0	 1	    1.08889	    0.98667;
	323	 1	 94.6	 -5.5	 0.0	 0.0	 1	    1.03702	  -20.91725	 225.0	 1	    1.08889	    1.00444;
	324	 1	 17.7	 6.3	 0.0	 0.0	 1	    1.01976	  -14.56013	 225.0	 1	    1.08889	    0.93333;
	325	 1	 91.8	 -15.3	 0.0	 0.0	 1	    1.05830	  -10.60790	 225.0	 1	    1.08444	    1.00444;
	326	 1	 29.0	 -1.9	 0.0	 0.0	 1	    1.04330	   -4.47010	 225.0	 1	    1.08444	    1.00889;
	327	 1	 22.1	 -5.8	 0.0	 0.0	 1	    1.05953	  -16.73164	 20.0	 1	    1.40000	    0.90000;