%%%%%%%%%%%%%%%%%%%%%%%%%%%%%%%%%%%%%%%%%%%%%%%%%%%%%%%%%%%%%%%%%%%%%%%%%%%
%%%%                                                                  %%%%%
%%%%    IEEE PES Power Grid Library - Optimal Power Flow - v17.07     %%%%%
%%%%          (https://github.com/power-grid-lib/pglib-opf)           %%%%%
%%%%             Benchmark Group - Small Angle Difference             %%%%%
%%%%                         27 - June - 2017                         %%%%%
%%%%                                                                  %%%%%
%%%%%%%%%%%%%%%%%%%%%%%%%%%%%%%%%%%%%%%%%%%%%%%%%%%%%%%%%%%%%%%%%%%%%%%%%%%
function mpc = pglib_opf_case6468_rte__sad
mpc.version = '2';
mpc.baseMVA = 100.0;

%% bus data
%	bus_i	type	Pd	Qd	Gs	Bs	area	Vm	Va	baseKV	zone	Vmax	Vmin
mpc.bus = [
	1	 1	 0.0	 0.0	 0.0	 0.0	 1	    0.97284	  -18.60649	 45.0	 1	    1.00000	    0.88889;
	2	 1	 0.0	 0.0	 0.0	 0.0	 1	    1.04625	  -11.66662	 63.0	 1	    1.06349	    0.93651;
	3	 1	 11.7	 -1.2	 0.0	 0.0	 1	    0.99678	  -15.31081	 63.0	 1	    1.07937	    0.95238;
	4	 1	 33.8	 -8.2	 0.0	 0.0	 1	    1.07563	  -10.44953	 90.0	 1	    1.08889	    0.93333;
	5	 1	 11.0	 -0.9	 0.0	 0.0	 1	    1.02320	  -25.21469	 63.0	 1	    1.06349	    0.95238;
	6	 1	 13.0	 4.3	 0.0	 0.0	 1	    1.02753	  -14.81571	 63.0	 1	    1.07937	    0.92063;
	7	 1	 1.0	 -0.2	 0.0	 0.0	 1	    1.06052	  -16.42034	 63.0	 1	    1.07937	    0.92063;
	8	 1	 0.4	 -4.4	 0.0	 0.0	 1	    1.07684	   -8.10392	 225.0	 1	    1.08889	    0.88889;
	9	 1	 16.9	 0.0	 0.0	 0.0	 1	    1.02398	  -24.44634	 63.0	 1	    1.06349	    0.93651;
	10	 1	 0.0	 0.0	 0.0	 0.0	 1	    1.07257	  -11.29183	 90.0	 1	    1.07778	    0.92222;
	11	 1	 20.0	 -3.1	 0.0	 0.0	 1	    1.07257	  -11.29183	 90.0	 1	    1.07778	    0.92222;
	12	 1	 0.0	 0.0	 0.0	 0.0	 1	    1.03121	   -6.01587	 63.0	 1	    1.07937	    0.95238;
	13	 1	 0.0	 0.0	 0.0	 0.0	 1	    1.07438	   -3.24675	 380.0	 1	    1.10263	    1.05084;
	14	 1	 37.0	 3.6	 0.0	 0.0	 1	    1.07139	  -10.35374	 90.0	 1	    1.07778	    0.97778;
	15	 1	 0.0	 0.0	 0.0	 0.0	 1	    1.02787	  -20.60679	 63.0	 1	    1.07937	    0.92063;
	16	 1	 10.3	 1.5	 0.0	 0.0	 1	    1.05598	  -22.19602	 63.0	 1	    1.07937	    0.92063;
	17	 1	 11.2	 -0.6	 0.0	 0.0	 1	    1.04607	  -16.06786	 90.0	 1	    1.06667	    0.97778;
	18	 1	 0.0	 0.0	 0.0	 0.0	 1	    0.92462	  -11.46053	 45.0	 1	    1.00000	    0.88889;
	19	 1	 1.0	 0.0	 0.0	 0.0	 1	    1.03331	  -15.62266	 63.0	 1	    1.06349	    0.93651;
	20	 1	 2.3	 -18.3	 0.0	 0.0	 1	    0.92545	  -11.49158	 45.0	 1	    1.00000	    0.88889;
	21	 1	 6.5	 -1.9	 0.0	 0.0	 1	    1.04249	  -12.03867	 90.0	 1	    1.06667	    0.97778;
	22	 1	 15.2	 1.4	 0.0	 0.0	 1	    1.02456	   -9.76179	 63.0	 1	    1.07937	    0.95238;
	23	 1	 29.1	 4.6	 0.0	 0.0	 1	    1.00656	  -18.56860	 63.0	 1	    1.06349	    0.93651;
	24	 1	 9.7	 -2.8	 0.0	 0.0	 1	    1.07048	   -9.41325	 90.0	 1	    1.11111	    0.95556;
	25	 1	 46.5	 -6.1	 0.0	 0.0	 1	    1.09460	   -9.57343	 90.0	 1	    1.10000	    0.94444;
	26	 1	 20.5	 4.7	 0.0	 0.0	 1	    1.03447	   -9.38258	 90.0	 1	    1.06667	    0.97778;
	27	 1	 0.0	 0.0	 0.0	 0.0	 1	    1.07656	   -5.84345	 225.0	 1	    1.08444	    1.00444;
	28	 1	 0.4	 0.9	 0.0	 0.0	 1	    1.02882	  -17.35885	 63.0	 1	    1.07937	    0.95238;
	29	 1	 52.7	 1.8	 0.0	 0.0	 1	    1.03642	  -17.08985	 63.0	 1	    1.06349	    0.96825;
	30	 1	 29.8	 -1.9	 0.0	 0.0	 1	    1.07042	  -10.82700	 90.0	 1	    1.08889	    0.93333;
	31	 1	 0.0	 0.0	 0.0	 0.0	 1	    1.03156	  -15.69550	 63.0	 1	    1.06349	    0.93651;
	32	 1	 0.0	 0.0	 0.0	 0.0	 1	    1.02773	   -9.56295	 150.0	 1	    1.10667	    0.90000;
	33	 1	 0.0	 0.0	 0.0	 0.0	 1	    1.04080	  -12.42814	 225.0	 1	    1.08889	    0.93333;
	34	 1	 0.0	 0.0	 0.0	 0.0	 1	    1.03619	  -12.28198	 225.0	 1	    1.08889	    0.93333;
	35	 1	 0.0	 0.0	 0.0	 0.0	 1	    1.05529	   -9.58133	 380.0	 1	    1.10526	    1.03947;
	36	 1	 0.0	 0.0	 0.0	 0.0	 1	    1.05161	   -8.17956	 380.0	 1	    1.10526	    1.03947;
	37	 1	 2.3	 4.4	 0.0	 0.0	 1	    1.01219	  -16.79981	 63.0	 1	    1.07937	    0.92063;
	38	 1	 7.0	 -1.0	 0.0	 0.0	 1	    1.06891	  -11.99874	 63.0	 1	    1.09524	    0.93651;
	39	 1	 35.0	 -6.8	 0.0	 0.0	 1	    1.03331	  -18.66691	 90.0	 1	    1.07778	    0.97778;
	40	 1	 31.7	 0.5	 0.0	 0.0	 1	    1.06572	   -8.86182	 90.0	 1	    1.07778	    0.97778;
	41	 1	 0.0	 0.0	 0.0	 0.0	 1	    1.08773	  -10.43505	 225.0	 1	    1.09194	    1.00444;
	42	 1	 0.0	 0.0	 0.0	 0.0	 1	    1.12957	   -2.00295	 63.0	 1	    1.13061	    0.95238;
	43	 1	 3.4	 2.8	 0.0	 0.0	 1	    1.05347	  -10.82851	 90.0	 1	    1.07778	    0.97778;
	44	 1	 12.4	 0.0	 0.0	 0.0	 1	    1.03186	  -26.03984	 63.0	 1	    1.06349	    0.95238;
	45	 1	 3.0	 2.1	 0.0	 0.0	 1	    1.03573	  -13.69319	 90.0	 1	    1.06667	    0.97778;
	46	 1	 0.0	 0.0	 0.0	 0.0	 1	    1.00927	  -16.99932	 63.0	 1	    1.06349	    0.93651;
	47	 2	 0.0	 0.0	 0.0	 0.0	 1	    1.00453	  -17.61820	 63.0	 1	    1.06349	    0.93651;
	48	 1	 34.0	 1.3	 0.0	 0.0	 1	    1.05719	  -10.77154	 90.0	 1	    1.07778	    0.92222;
	49	 1	 6.9	 -2.5	 0.0	 0.0	 1	    1.04008	  -12.86355	 63.0	 1	    1.06349	    0.93651;
	50	 1	 0.0	 0.0	 0.0	 0.0	 1	    1.05224	  -19.58514	 63.0	 1	    1.07436	    0.93651;
	51	 1	 0.0	 0.0	 0.0	 0.0	 1	    1.03843	  -15.20623	 225.0	 1	    1.08889	    0.93333;
	52	 1	 5.8	 2.5	 0.0	 0.0	 1	    1.04199	  -15.32074	 90.0	 1	    1.06667	    0.97778;
	53	 1	 0.2	 -0.3	 0.0	 0.0	 1	    1.02659	  -12.54667	 63.0	 1	    1.04762	    0.95238;
	54	 1	 0.9	 -0.8	 0.0	 0.0	 1	    1.05403	   -8.19978	 90.0	 1	    1.06667	    0.97778;
	55	 1	 30.1	 5.4	 0.0	 0.0	 1	    1.07484	  -12.40394	 225.0	 1	    1.08889	    1.00444;
	56	 1	 42.2	 6.3	 0.0	 0.0	 1	    1.05485	  -10.96795	 225.0	 1	    1.08889	    1.00444;
	57	 2	 0.0	 0.0	 0.0	 0.0	 1	    1.05129	  -17.31839	 63.0	 1	    1.07937	    0.92063;
	58	 1	 107.6	 28.8	 0.0	 0.0	 1	    1.07465	  -12.41534	 225.0	 1	    1.08889	    1.00444;
	59	 1	 5.2	 1.4	 0.0	 0.0	 1	    1.00534	  -13.41814	 63.0	 1	    1.07937	    0.95238;
	60	 1	 0.0	 0.0	 0.0	 0.0	 1	    1.05073	   -9.14274	 63.0	 1	    1.07937	    0.95238;
	61	 1	 29.6	 5.1	 0.0	 0.0	 1	    1.01736	  -10.06321	 63.0	 1	    1.07937	    0.95238;
	62	 1	 0.0	 0.0	 0.0	 0.0	 1	    1.04356	   -9.18682	 63.0	 1	    1.07937	    0.95238;
	63	 1	 12.8	 2.0	 0.0	 0.0	 1	    1.02439	   -5.67175	 63.0	 1	    1.07937	    0.95238;
	64	 1	 47.2	 -0.7	 0.0	 0.0	 1	    1.07710	   -5.69994	 225.0	 1	    1.08889	    0.88889;
	65	 1	 10.0	 2.9	 0.0	 0.0	 1	    1.02852	  -10.56649	 63.0	 1	    1.07937	    0.95238;
	66	 1	 11.1	 -9.3	 0.0	 0.0	 1	    1.05678	  -19.69021	 63.0	 1	    1.06349	    0.93651;
	67	 1	 0.0	 0.0	 0.0	 0.0	 1	    1.02734	   -8.52807	 63.0	 1	    1.07937	    0.92063;
	68	 1	 41.1	 -6.8	 0.0	 0.0	 1	    1.02517	  -14.92946	 63.0	 1	    1.06349	    0.93651;
	69	 1	 14.4	 -3.2	 0.0	 0.0	 1	    1.06349	  -26.24595	 63.0	 1	    1.06349	    0.95238;
	70	 1	 8.7	 0.6	 0.0	 0.0	 1	    1.04314	   -4.98145	 63.0	 1	    1.07937	    0.95238;
	71	 1	 55.8	 10.7	 0.0	 0.0	 1	    1.02660	  -12.25552	 63.0	 1	    1.04762	    0.95238;
	72	 1	 0.0	 0.0	 0.0	 0.0	 1	    1.07804	   -4.21927	 225.0	 1	    1.08889	    1.00444;
	73	 1	 0.0	 0.0	 0.0	 0.0	 1	    1.07804	   -4.21927	 225.0	 1	    1.08889	    1.00444;
	74	 1	 37.1	 -8.7	 0.0	 0.0	 1	    1.07753	   -5.65893	 225.0	 1	    1.08889	    0.88889;
	75	 1	 19.3	 1.4	 0.0	 0.0	 1	    1.06540	   -9.21426	 90.0	 1	    1.06825	    0.97778;
	76	 1	 6.3	 3.2	 0.0	 0.0	 1	    1.08571	   -2.94381	 225.0	 1	    1.08889	    0.98667;
	77	 1	 28.9	 -5.2	 0.0	 0.0	 1	    1.04478	  -14.05616	 63.0	 1	    1.06349	    0.93651;
	78	 1	 0.0	 0.0	 0.0	 0.0	 1	    1.05185	  -20.22578	 63.0	 1	    1.07937	    0.92063;
	79	 1	 0.0	 0.0	 0.0	 0.0	 1	    1.00974	  -10.02366	 63.0	 1	    1.04762	    0.95238;
	80	 1	 26.1	 -1.0	 0.0	 0.0	 1	    1.06547	  -10.35984	 225.0	 1	    1.08889	    1.00444;
	81	 1	 26.1	 3.5	 0.0	 0.0	 1	    1.06547	  -10.35950	 225.0	 1	    1.08889	    1.00444;
	82	 1	 9.8	 -3.2	 0.0	 0.0	 1	    1.03526	  -13.21705	 63.0	 1	    1.06349	    0.93651;
	83	 1	 85.0	 46.2	 0.0	 0.0	 1	    1.06871	  -11.09360	 225.0	 1	    1.08889	    1.00444;
	84	 1	 -1.0	 -1.1	 0.0	 0.0	 1	    1.05654	   -9.53748	 63.0	 1	    1.06349	    0.93651;
	85	 1	 2.3	 -0.8	 0.0	 0.0	 1	    1.05112	  -14.61352	 63.0	 1	    1.06349	    0.93651;
	86	 1	 30.3	 -3.7	 0.0	 0.0	 1	    1.03148	  -20.38021	 90.0	 1	    1.06667	    0.97778;
	87	 1	 0.0	 0.0	 0.0	 0.0	 1	    1.03620	   -5.37279	 63.0	 1	    1.07937	    0.95238;
	88	 1	 11.5	 -3.8	 0.0	 0.0	 1	    1.03773	  -15.37633	 63.0	 1	    1.06349	    0.93651;
	89	 1	 17.7	 -4.9	 0.0	 0.0	 1	    1.05870	  -12.88187	 90.0	 1	    1.07778	    0.97778;
	90	 1	 0.7	 -0.3	 0.0	 0.0	 1	    0.92426	  -12.51597	 45.0	 1	    1.00000	    0.88889;
	91	 1	 0.0	 0.0	 0.0	 0.0	 1	    0.92462	  -11.46053	 45.0	 1	    1.00000	    0.88889;
	92	 1	 24.7	 0.4	 0.0	 0.0	 1	    1.05105	  -15.09843	 63.0	 1	    1.06349	    0.96825;
	93	 1	 2.3	 -2.5	 0.0	 0.0	 1	    0.95660	  -15.24045	 45.0	 1	    1.00000	    0.88889;
	94	 1	 13.0	 -4.9	 0.0	 0.0	 1	    1.06403	   -9.43244	 90.0	 1	    1.06667	    0.97778;
	95	 1	 38.0	 3.8	 0.0	 0.0	 1	    1.04133	  -14.59565	 90.0	 1	    1.06667	    0.97778;
	96	 1	 0.9	 -0.6	 0.0	 0.0	 1	    1.02280	  -13.27687	 63.0	 1	    1.06349	    0.93651;
	97	 1	 47.0	 0.8	 0.0	 0.0	 1	    1.06307	  -18.68448	 63.0	 1	    1.07937	    0.92063;
	98	 1	 6.6	 -2.2	 0.0	 0.0	 1	    1.04090	  -12.30847	 63.0	 1	    1.07937	    0.95238;
	99	 1	 21.9	 3.2	 0.0	 0.0	 1	    1.02111	   -9.71679	 63.0	 1	    1.07937	    0.95238;
	100	 1	 46.3	 7.4	 0.0	 0.0	 1	    1.00709	  -19.85519	 63.0	 1	    1.06349	    0.93651;
	101	 1	 14.0	 -1.5	 0.0	 0.0	 1	    1.05281	  -11.37892	 63.0	 1	    1.06349	    0.93651;
	102	 2	 0.0	 0.0	 0.0	 0.0	 1	    1.03529	  -12.57668	 63.0	 1	    1.07937	    0.95238;
	103	 1	 13.2	 -4.0	 0.0	 0.0	 1	    1.03112	   -9.50719	 63.0	 1	    1.07937	    0.95238;
	104	 1	 0.0	 0.0	 0.0	 0.0	 1	    1.06532	   -7.07084	 225.0	 1	    1.08889	    0.98667;
	105	 1	 28.5	 -1.6	 0.0	 0.0	 1	    1.07603	   -7.53867	 225.0	 1	    1.08889	    0.88889;
	106	 1	 38.8	 2.2	 0.0	 0.0	 1	    1.08266	  -10.29195	 90.0	 1	    1.10000	    0.94444;
	107	 1	 71.6	 4.9	 0.0	 0.0	 1	    1.08444	  -20.33951	 225.0	 1	    1.08444	    1.00889;
	108	 1	 7.9	 -4.6	 0.0	 0.0	 1	    1.06143	   -7.64324	 90.0	 1	    1.07778	    0.97778;
	109	 1	 60.6	 7.8	 0.0	 0.0	 1	    1.05864	  -11.78929	 63.0	 1	    1.06349	    0.93651;
	110	 1	 0.0	 0.0	 0.0	 0.0	 1	    1.04294	   -9.78151	 225.0	 1	    1.08889	    0.93333;
	111	 1	 34.2	 -7.2	 0.0	 0.0	 1	    1.03034	  -16.97675	 63.0	 1	    1.06349	    0.96825;
	112	 1	 0.0	 0.0	 0.0	 0.0	 1	    1.03803	  -11.95686	 63.0	 1	    1.04762	    0.95238;
	113	 1	 0.0	 0.0	 0.0	 0.0	 1	    1.07613	   -9.63121	 225.0	 1	    1.08889	    1.00444;
	114	 1	 11.5	 -1.0	 0.0	 0.0	 1	    1.03787	  -19.31002	 63.0	 1	    1.06349	    0.93651;
	115	 1	 0.0	 0.0	 0.0	 0.0	 1	    1.07439	   -3.24683	 380.0	 1	    1.10526	    1.05085;
	116	 1	 0.0	 0.0	 0.0	 0.0	 1	    1.07439	   -3.24683	 380.0	 1	    1.10526	    1.05085;
	117	 1	 13.2	 -2.2	 0.0	 0.0	 1	    1.01792	  -17.89699	 63.0	 1	    1.07937	    0.95238;
	118	 1	 2.0	 0.8	 0.0	 0.0	 1	    1.06725	   -8.98612	 90.0	 1	    1.07012	    0.97778;
	119	 1	 35.5	 0.7	 0.0	 0.0	 1	    1.03334	   -8.94575	 63.0	 1	    1.06349	    0.93651;
	120	 1	 29.9	 -1.3	 0.0	 0.0	 1	    1.01410	  -17.90159	 63.0	 1	    1.06349	    0.93651;
	121	 1	 15.3	 3.7	 0.0	 0.0	 1	    1.03541	  -13.41068	 63.0	 1	    1.07937	    0.92063;
	122	 2	 0.0	 0.0	 0.0	 0.0	 1	    1.03339	  -10.66321	 63.0	 1	    1.07937	    0.95238;
	123	 1	 9.0	 2.7	 0.0	 0.0	 1	    1.03228	  -10.73105	 63.0	 1	    1.07937	    0.95238;
	124	 1	 8.9	 -4.0	 0.0	 0.0	 1	    1.04846	  -12.43381	 90.0	 1	    1.06667	    0.97778;
	125	 1	 4.8	 -3.1	 0.0	 0.0	 1	    1.04932	   -6.26718	 63.0	 1	    1.07937	    0.95238;
	126	 1	 -0.3	 0.5	 0.0	 0.0	 1	    1.05009	  -14.44282	 63.0	 1	    1.06349	    0.93651;
	127	 1	 6.5	 0.4	 0.0	 0.0	 1	    1.02767	  -11.78194	 63.0	 1	    1.04762	    0.95238;
	128	 1	 13.9	 5.6	 0.0	 0.0	 1	    1.04975	   -8.42252	 63.0	 1	    1.06349	    0.96825;
	129	 1	 18.8	 14.3	 0.0	 0.0	 1	    1.04989	   -7.19598	 63.0	 1	    1.06349	    0.96825;
	130	 1	 0.0	 0.0	 0.0	 0.0	 1	    1.06778	   -6.86983	 225.0	 1	    1.08444	    1.00889;
	131	 1	 82.0	 2.0	 0.0	 0.0	 1	    1.06010	  -12.78119	 225.0	 1	    1.08444	    1.00889;
	132	 2	 11.9	 0.0	 0.0	 0.0	 1	    1.04444	  -16.32785	 90.0	 1	    1.07778	    0.92222;
	133	 1	 1.3	 0.3	 0.0	 0.0	 1	    1.02434	  -13.79839	 63.0	 1	    1.04762	    0.95238;
	134	 1	 71.7	 15.7	 0.0	 0.0	 1	    1.06672	  -11.68260	 225.0	 1	    1.08889	    1.00444;
	135	 1	 0.0	 0.0	 0.0	 0.0	 1	    1.07499	  -12.29038	 225.0	 1	    1.08889	    1.00444;
	136	 1	 18.8	 2.3	 0.0	 0.0	 1	    1.04462	  -17.24104	 90.0	 1	    1.07778	    0.97778;
	137	 2	 13.4	 -9.1	 0.0	 0.0	 1	    1.02969	  -20.58494	 63.0	 1	    1.06349	    0.96825;
	138	 1	 0.0	 0.0	 0.0	 0.0	 1	    1.02392	  -17.64384	 150.0	 1	    1.08000	    0.96667;
	139	 1	 8.6	 -1.0	 0.0	 0.0	 1	    1.06509	  -14.48660	 63.0	 1	    1.07937	    0.92063;
	140	 1	 0.0	 0.0	 0.0	 0.0	 1	    1.08863	  -11.89384	 225.0	 1	    1.08889	    1.00000;
	141	 1	 0.0	 0.0	 0.0	 0.0	 1	    1.09757	   -9.37620	 380.0	 1	    1.10526	    1.05263;
	142	 1	 15.8	 1.3	 0.0	 0.0	 1	    1.00872	  -13.07954	 63.0	 1	    1.07937	    0.95238;
	143	 1	 0.0	 0.0	 0.0	 0.0	 1	    1.04885	   -9.59957	 225.0	 1	    1.08889	    0.98667;
	144	 1	 0.0	 0.0	 0.0	 -64.0	 1	    1.07309	   -6.03201	 20.0	 1	    1.15000	    0.80000;
	145	 1	 21.2	 10.0	 0.0	 0.0	 1	    1.07368	   -8.29354	 90.0	 1	    1.11111	    0.95556;
	146	 1	 25.6	 6.2	 0.0	 0.0	 1	    1.07750	   -5.45351	 225.0	 1	    1.08889	    0.96889;
	147	 1	 0.0	 0.0	 0.0	 0.0	 1	    1.08266	   -2.86946	 380.0	 1	    1.10526	    1.00000;
	148	 1	 25.0	 3.6	 0.0	 0.0	 1	    1.03506	  -18.65238	 63.0	 1	    1.06349	    0.93651;
	149	 1	 6.3	 2.2	 0.0	 0.0	 1	    1.03526	  -13.67202	 63.0	 1	    1.06349	    0.93651;
	150	 1	 17.9	 5.1	 0.0	 0.0	 1	    1.03400	  -15.12720	 90.0	 1	    1.06667	    0.97778;
	151	 1	 41.9	 5.6	 0.0	 0.0	 1	    1.02925	  -16.12087	 63.0	 1	    1.06349	    0.93651;
	152	 1	 0.0	 0.0	 0.0	 0.0	 1	    1.02730	  -19.35824	 63.0	 1	    1.06349	    0.96825;
	153	 1	 34.2	 5.9	 0.0	 7.7	 1	    1.02732	  -18.08596	 63.0	 1	    1.06349	    0.96825;
	154	 1	 20.4	 0.6	 0.0	 0.0	 1	    1.02469	  -15.43362	 63.0	 1	    1.06349	    0.93651;
	155	 1	 0.0	 0.0	 0.0	 0.0	 1	    1.04975	  -11.92126	 225.0	 1	    1.08889	    0.93333;
	156	 2	 0.0	 0.0	 0.0	 0.0	 1	    1.03888	  -21.46705	 63.0	 1	    1.07937	    0.92063;
	157	 1	 0.0	 0.0	 0.0	 0.0	 1	    1.02728	  -19.36152	 63.0	 1	    1.06349	    0.96825;
	158	 1	 -0.1	 -2.1	 0.0	 0.0	 1	    0.89413	  -16.66667	 45.0	 1	    1.00000	    0.88889;
	159	 2	 0.0	 0.0	 0.0	 0.0	 1	    0.94358	  -14.21157	 45.0	 1	    1.00000	    0.88889;
	160	 1	 0.0	 0.0	 0.0	 0.0	 1	    1.01196	  -18.65445	 63.0	 1	    1.06349	    0.93651;
	161	 1	 29.5	 2.3	 0.0	 0.0	 1	    1.08179	   -6.59154	 225.0	 1	    1.08889	    0.88889;
	162	 1	 31.5	 7.4	 0.0	 0.0	 1	    1.08158	   -6.59466	 225.0	 1	    1.08889	    0.88889;
	163	 1	 0.4	 -1.6	 0.0	 0.0	 1	    1.04995	   -6.94673	 90.0	 1	    1.06667	    0.97778;
	164	 1	 0.0	 0.0	 0.0	 0.0	 1	    1.04712	   -9.35531	 63.0	 1	    1.07937	    0.95238;
	165	 1	 0.0	 0.0	 0.0	 0.0	 1	    1.04712	   -9.35531	 63.0	 1	    1.07937	    0.95238;
	166	 1	 11.3	 -3.9	 0.0	 0.0	 1	    1.08643	  -10.83481	 20.0	 1	    1.15000	    0.80000;
	167	 1	 5.8	 1.4	 0.0	 0.0	 1	    1.04706	  -14.30173	 90.0	 1	    1.06667	    0.97778;
	168	 1	 7.8	 -0.9	 0.0	 0.0	 1	    1.04759	  -14.41481	 90.0	 1	    1.06667	    0.97778;
	169	 1	 0.0	 0.0	 0.0	 0.0	 1	    1.08640	  -10.83007	 225.0	 1	    1.08642	    1.00444;
	170	 1	 9.1	 -1.1	 0.0	 0.0	 1	    1.04136	  -14.30793	 90.0	 1	    1.06667	    0.97778;
	171	 1	 60.0	 6.1	 0.0	 0.0	 1	    1.05975	  -13.36884	 90.0	 1	    1.07778	    0.97778;
	172	 1	 21.4	 -1.8	 0.0	 0.0	 1	    1.04970	  -15.84804	 90.0	 1	    1.07778	    0.97778;
	173	 1	 0.0	 0.0	 0.0	 0.0	 1	    1.07618	  -12.51929	 225.0	 1	    1.08889	    1.00444;
	174	 1	 26.6	 6.6	 0.0	 0.0	 1	    1.08842	   -8.43839	 90.0	 1	    1.08889	    0.93333;
	175	 1	 35.7	 -1.5	 0.0	 0.0	 1	    1.09459	  -10.74449	 90.0	 1	    1.11111	    0.95556;
	176	 1	 0.0	 0.0	 0.0	 0.0	 1	    1.03268	  -19.15337	 63.0	 1	    1.07937	    0.92063;
	177	 1	 0.0	 0.0	 0.0	 0.0	 1	    1.03371	  -16.80335	 63.0	 1	    1.07937	    0.92063;
	178	 2	 0.0	 0.0	 0.0	 0.0	 1	    1.09996	  -17.77847	 150.0	 1	    1.10000	    0.90000;
	179	 1	 0.0	 0.0	 0.0	 0.0	 1	    1.06713	   -9.62644	 225.0	 1	    1.08889	    1.00444;
	180	 1	 0.0	 0.0	 0.0	 0.0	 1	    1.06713	   -9.62644	 225.0	 1	    1.08889	    1.00444;
	181	 1	 0.0	 0.0	 0.0	 -32.0	 1	    0.98728	  -11.88354	 20.0	 1	    1.15000	    0.80000;
	182	 1	 0.0	 0.0	 0.0	 -32.0	 1	    1.02027	  -11.83980	 20.0	 1	    1.15000	    0.80000;
	183	 1	 0.0	 0.0	 0.0	 0.0	 1	    1.02774	  -11.77541	 63.0	 1	    1.04762	    0.95238;
	184	 1	 0.0	 0.0	 0.0	 -80.0	 1	    1.06713	   -9.62644	 225.0	 1	    1.08889	    1.00444;
	185	 1	 12.1	 -5.9	 0.0	 0.0	 1	    1.06076	  -18.86331	 63.0	 1	    1.07937	    0.92063;
	186	 1	 16.0	 3.1	 0.0	 0.0	 1	    1.03973	   -9.78169	 63.0	 1	    1.06349	    0.93651;
	187	 1	 5.4	 0.3	 0.0	 0.0	 1	    1.02004	  -13.77439	 63.0	 1	    1.07937	    0.95238;
	188	 1	 3.0	 0.4	 0.0	 0.0	 1	    1.07045	   -5.56162	 90.0	 1	    1.07778	    0.97778;
	189	 1	 21.9	 2.4	 0.0	 0.0	 1	    1.00318	  -13.77614	 63.0	 1	    1.07937	    0.95238;
	190	 1	 1.4	 -0.7	 0.0	 0.0	 1	    1.04379	   -7.07841	 90.0	 1	    1.06667	    0.97778;
	191	 2	 0.0	 0.0	 0.0	 0.0	 1	    1.06373	  -20.56931	 63.0	 1	    1.07937	    0.92063;
	192	 1	 12.5	 1.1	 0.0	 0.0	 1	    1.04723	  -15.77809	 63.0	 1	    1.07937	    0.92063;
	193	 2	 0.0	 0.0	 0.0	 0.0	 1	    0.93482	  -15.17690	 45.0	 1	    1.00000	    0.88889;
	194	 1	 12.7	 -1.3	 0.0	 0.0	 1	    1.04184	  -14.55949	 90.0	 1	    1.06667	    0.97778;
	195	 1	 7.3	 -1.4	 0.0	 0.0	 1	    1.05103	  -17.79579	 63.0	 1	    1.07937	    0.92063;
	196	 1	 7.7	 5.3	 0.0	 0.0	 1	    1.07530	  -10.01277	 225.0	 1	    1.08889	    1.00444;
	197	 2	 1.4	 -3.2	 0.0	 0.0	 1	    1.06518	  -18.82347	 63.0	 1	    1.07937	    0.92063;
	198	 1	 0.0	 0.0	 0.0	 0.0	 1	    1.09441	  -11.73921	 63.0	 1	    1.09743	    0.95238;
	199	 1	 0.0	 0.0	 0.0	 0.0	 1	    1.09441	  -11.73925	 63.0	 1	    1.09743	    0.95238;
	200	 1	 25.0	 -4.9	 0.0	 0.0	 1	    1.05873	  -22.90035	 63.0	 1	    1.07937	    0.92063;
	201	 1	 8.5	 -2.4	 0.0	 0.0	 1	    1.03727	  -18.13133	 63.0	 1	    1.07937	    0.92063;
	202	 1	 9.4	 0.4	 0.0	 0.0	 1	    1.03384	  -18.74812	 90.0	 1	    1.06667	    0.97778;
	203	 1	 0.0	 0.0	 0.0	 0.0	 1	    1.06682	  -17.38360	 225.0	 1	    1.08889	    1.00000;
	204	 1	 52.5	 20.6	 0.0	 0.0	 1	    1.07047	   -8.00848	 225.0	 1	    1.08889	    0.88889;
	205	 1	 34.3	 -1.4	 0.0	 0.0	 1	    1.03167	  -21.07430	 63.0	 1	    1.06349	    0.96825;
	206	 1	 24.7	 4.7	 0.0	 0.0	 1	    1.08276	   -5.73171	 90.0	 1	    1.10000	    0.94444;
	207	 1	 0.0	 0.0	 0.0	 0.0	 1	    1.08225	   -3.22227	 225.0	 1	    1.08889	    0.96889;
	208	 1	 0.0	 0.0	 0.0	 0.0	 1	    1.08994	   -0.23745	 380.0	 1	    1.10526	    1.00000;
	209	 1	 42.0	 2.2	 0.0	 0.0	 1	    1.03758	  -19.29079	 63.0	 1	    1.06349	    0.96825;
	210	 1	 26.8	 -0.4	 0.0	 0.0	 1	    1.01732	  -11.23161	 63.0	 1	    1.06349	    0.96825;
	211	 1	 12.0	 -2.0	 0.0	 0.0	 1	    1.04116	   -8.75020	 90.0	 1	    1.07778	    0.97778;
	212	 1	 2.9	 1.3	 0.0	 0.0	 1	    1.04208	  -14.75240	 63.0	 1	    1.06349	    0.96825;
	213	 1	 42.7	 6.6	 0.0	 0.0	 1	    1.01108	  -12.51319	 63.0	 1	    1.06349	    0.96825;
	214	 1	 29.7	 13.3	 0.0	 0.0	 1	    1.01111	  -12.36097	 63.0	 1	    1.06349	    0.96825;
	215	 1	 0.0	 0.0	 0.0	 0.0	 1	    1.05628	  -12.30608	 225.0	 1	    1.08444	    1.00889;
	216	 1	 0.0	 0.0	 0.0	 0.0	 1	    1.05621	  -12.28952	 225.0	 1	    1.08444	    1.00889;
	217	 1	 33.1	 2.0	 0.0	 0.0	 1	    1.05075	  -14.83876	 90.0	 1	    1.07778	    0.97778;
	218	 1	 0.0	 0.0	 0.0	 0.0	 1	    1.07479	  -12.11920	 225.0	 1	    1.08889	    1.00444;
	219	 1	 15.4	 -7.4	 0.0	 0.0	 1	    1.02486	   -6.66042	 63.0	 1	    1.06349	    0.95238;
	220	 1	 23.5	 -0.6	 0.0	 0.0	 1	    1.03326	  -12.07592	 90.0	 1	    1.06667	    0.97778;
	221	 1	 0.9	 -0.9	 0.0	 0.0	 1	    1.05374	   -8.17191	 90.0	 1	    1.06667	    0.97778;
	222	 1	 8.8	 -1.3	 0.0	 0.0	 1	    1.03233	  -13.84017	 90.0	 1	    1.06667	    0.97778;
	223	 1	 11.0	 1.5	 0.0	 0.0	 1	    1.03942	   -5.99613	 63.0	 1	    1.07937	    0.95238;
	224	 1	 14.1	 -11.3	 0.0	 0.0	 1	    1.03713	  -12.20099	 63.0	 1	    1.06349	    0.93651;
	225	 1	 0.0	 0.0	 0.0	 0.0	 1	    1.08021	   -9.82132	 225.0	 1	    1.08889	    0.93333;
	226	 1	 32.0	 -2.3	 0.0	 0.0	 1	    1.02315	  -17.78608	 63.0	 1	    1.07937	    0.92063;
	227	 2	 0.0	 0.0	 0.0	 0.0	 1	    1.09991	  -17.77749	 150.0	 1	    1.10000	    0.90000;
	228	 1	 75.7	 34.1	 0.0	 0.0	 1	    1.05268	  -13.39896	 225.0	 1	    1.08444	    1.00889;
	229	 1	 74.7	 49.1	 0.0	 0.0	 1	    1.05244	  -13.39566	 225.0	 1	    1.08444	    1.00889;
	230	 1	 4.0	 0.2	 0.0	 0.0	 1	    1.02863	  -28.70750	 63.0	 1	    1.06349	    0.95238;
	231	 1	 9.9	 -2.0	 0.0	 0.0	 1	    1.02822	  -29.29951	 63.0	 1	    1.06349	    0.95238;
	232	 1	 14.6	 -5.1	 0.0	 0.0	 1	    1.05795	  -14.68714	 63.0	 1	    1.07937	    0.92063;
	233	 1	 0.0	 0.0	 0.0	 0.0	 1	    1.05397	  -13.22560	 225.0	 1	    1.08889	    0.97778;
	234	 1	 6.0	 -2.4	 0.0	 0.0	 1	    1.04105	  -13.54354	 90.0	 1	    1.06667	    0.97778;
	235	 1	 6.6	 1.5	 0.0	 0.0	 1	    1.05341	   -1.89062	 90.0	 1	    1.08889	    0.93333;
	236	 1	 0.0	 0.0	 0.0	 0.0	 1	    1.07751	  -11.08959	 20.0	 1	    1.15000	    0.80000;
	237	 1	 21.9	 6.1	 0.0	 0.0	 1	    1.07751	  -11.08959	 90.0	 1	    1.08889	    0.93333;
	238	 1	 15.0	 2.4	 0.0	 0.0	 1	    1.07420	   -8.47382	 225.0	 1	    1.08889	    0.88889;
	239	 1	 19.0	 -0.8	 0.0	 0.0	 1	    1.06789	   -9.45786	 90.0	 1	    1.07778	    0.92222;
	240	 1	 37.4	 1.0	 0.0	 0.0	 1	    1.00957	  -15.44817	 63.0	 1	    1.06349	    0.93651;
	241	 1	 19.0	 -2.0	 0.0	 0.0	 1	    1.03920	  -10.19791	 90.0	 1	    1.06667	    0.97778;
	242	 1	 43.3	 2.4	 0.0	 0.0	 1	    1.02743	  -32.66485	 63.0	 1	    1.06349	    0.95238;
	243	 1	 32.9	 4.7	 0.0	 0.0	 1	    1.05191	  -20.22210	 63.0	 1	    1.07937	    0.92063;
	244	 1	 35.5	 0.5	 0.0	 0.0	 1	    1.03642	  -16.48121	 90.0	 1	    1.07778	    0.92222;
	245	 1	 40.1	 4.7	 0.0	 0.0	 1	    1.03019	  -18.70828	 63.0	 1	    1.06349	    0.96825;
	246	 1	 21.9	 -5.1	 0.0	 0.0	 1	    1.04199	  -20.11326	 63.0	 1	    1.07937	    0.92063;
	247	 1	 43.9	 2.5	 0.0	 0.0	 1	    1.03670	  -17.66337	 90.0	 1	    1.07778	    0.92222;
	248	 1	 10.7	 0.9	 0.0	 0.0	 1	    1.00727	  -18.64407	 63.0	 1	    1.07937	    0.92063;
	249	 2	 14.2	 2.8	 0.0	 0.0	 1	    0.99144	  -14.08694	 63.0	 1	    1.06349	    0.93651;
	250	 1	 0.0	 0.0	 0.0	 0.0	 1	    1.03013	  -12.40958	 225.0	 1	    1.08889	    0.93333;
	251	 1	 22.6	 5.6	 0.0	 0.0	 1	    1.05417	  -11.14536	 225.0	 1	    1.08889	    1.00444;
	252	 1	 19.5	 -2.3	 0.0	 0.0	 1	    1.05740	  -21.67225	 63.0	 1	    1.07937	    0.92063;
	253	 1	 20.5	 -6.8	 0.0	 0.0	 1	    1.01845	  -16.71511	 63.0	 1	    1.07937	    0.95238;
	254	 1	 5.6	 0.3	 0.0	 0.0	 1	    1.04021	  -13.03505	 90.0	 1	    1.06667	    0.97778;
	255	 1	 7.5	 -3.1	 0.0	 0.0	 1	    1.04602	   -7.61561	 90.0	 1	    1.06667	    0.97778;
	256	 1	 42.9	 4.8	 0.0	 0.0	 1	    1.04224	  -12.37253	 63.0	 1	    1.07937	    0.95238;
	257	 1	 13.6	 -0.8	 0.0	 0.0	 1	    1.03298	  -17.11396	 63.0	 1	    1.07937	    0.95238;
	258	 1	 7.5	 1.8	 0.0	 0.0	 1	    1.02612	  -13.81485	 63.0	 1	    1.06349	    0.93651;
	259	 2	 1.7	 0.0	 0.0	 0.0	 1	    1.03122	  -18.21265	 63.0	 1	    1.07937	    0.92063;
	260	 1	 0.0	 0.0	 0.0	 0.0	 1	    1.06754	  -17.48534	 225.0	 1	    1.08889	    1.00000;
	261	 2	 0.0	 0.0	 0.0	 0.0	 1	    1.05408	  -15.53944	 90.0	 1	    1.07778	    0.92222;
	262	 1	 27.8	 0.5	 0.0	 0.0	 1	    1.04490	  -10.39502	 63.0	 1	    1.07937	    0.95238;
	263	 1	 0.0	 0.0	 0.0	 0.0	 1	    1.07753	   -8.53932	 225.0	 1	    1.08889	    0.98667;
	264	 2	 0.0	 0.0	 0.0	 0.0	 1	    1.03000	  -24.04317	 63.0	 1	    1.07937	    0.92063;
	265	 1	 0.0	 0.0	 0.0	 80.0	 1	    1.08563	   -6.68261	 225.0	 1	    1.08889	    0.88889;
	266	 1	 0.0	 0.0	 0.0	 0.0	 1	    1.07607	   -7.23111	 225.0	 1	    1.08889	    0.88889;
	267	 1	 0.0	 0.0	 0.0	 0.0	 1	    1.08176	   -4.53991	 380.0	 1	    1.10526	    1.01316;
	268	 1	 0.0	 0.0	 0.0	 0.0	 1	    1.02252	  -13.31866	 63.0	 1	    1.04762	    0.95238;
	269	 1	 19.1	 2.0	 0.0	 -80.0	 1	    1.06753	  -10.35111	 225.0	 1	    1.08889	    1.00444;
	270	 1	 47.2	 1.7	 0.0	 0.0	 1	    1.06594	  -10.54866	 225.0	 1	    1.08889	    1.00444;
	271	 1	 10.7	 10.5	 0.0	 0.0	 1	    1.01736	  -14.47699	 63.0	 1	    1.07937	    0.92063;
	272	 1	 18.5	 -1.3	 0.0	 0.0	 1	    1.02344	  -21.48473	 63.0	 1	    1.07937	    0.92063;
	273	 1	 0.0	 0.0	 0.0	 0.0	 1	    1.06246	   -7.79242	 225.0	 1	    1.08889	    0.97778;
	274	 1	 0.0	 0.0	 0.0	 0.0	 1	    1.06244	   -7.79303	 225.0	 1	    1.08889	    0.97778;
	275	 1	 10.0	 6.0	 0.0	 0.0	 1	    1.04969	  -11.37117	 63.0	 1	    1.06349	    0.96825;
	276	 1	 49.7	 0.7	 0.0	 0.0	 1	    1.06160	   -8.49841	 225.0	 1	    1.08444	    1.00889;
	277	 1	 36.5	 1.2	 0.0	 0.0	 1	    1.09471	  -10.63644	 90.0	 1	    1.10000	    0.94444;
	278	 1	 0.0	 0.0	 0.0	 0.0	 1	    1.08447	   -7.60326	 225.0	 1	    1.08668	    1.00444;
	279	 1	 0.0	 0.0	 0.0	 0.0	 1	    1.08583	   -2.50873	 380.0	 1	    1.10263	    1.04211;
	280	 1	 3.9	 3.2	 0.0	 0.0	 1	    1.04239	  -10.20577	 90.0	 1	    1.06667	    0.97778;
	281	 1	 0.5	 3.1	 0.0	 0.0	 1	    1.08433	   -7.65417	 225.0	 1	    1.08655	    1.00444;
	282	 1	 15.9	 -1.2	 0.0	 0.0	 1	    0.99804	  -28.49065	 63.0	 1	    1.06349	    0.93651;
	283	 1	 36.5	 4.5	 0.0	 0.0	 1	    1.06074	  -12.52120	 90.0	 1	    1.07778	    0.97778;
	284	 1	 10.8	 0.0	 0.0	 0.0	 1	    1.02415	   -9.92605	 63.0	 1	    1.07937	    0.95238;
	285	 2	 0.0	 0.0	 0.0	 0.0	 1	    0.99144	  -14.08696	 63.0	 1	    1.06349	    0.93651;
	286	 1	 6.2	 -1.4	 0.0	 0.0	 1	    1.04125	  -14.76521	 90.0	 1	    1.06667	    0.97778;
	287	 1	 12.4	 2.7	 0.0	 0.0	 1	    1.03204	   -4.25072	 63.0	 1	    1.07937	    0.95238;
	288	 1	 0.4	 3.8	 0.0	 0.0	 1	    1.05544	  -10.85215	 225.0	 1	    1.08889	    1.00444;
	289	 1	 11.6	 2.3	 0.0	 0.0	 1	    1.05542	  -10.85875	 225.0	 1	    1.08889	    1.00444;
	290	 1	 19.9	 -7.8	 0.0	 0.0	 1	    1.06419	   -9.01023	 90.0	 1	    1.06667	    0.97778;
	291	 1	 26.8	 -4.5	 0.0	 0.0	 1	    1.03701	  -14.17879	 90.0	 1	    1.06667	    0.97778;
	292	 1	 40.0	 5.8	 0.0	 0.0	 1	    1.07708	   -4.23632	 225.0	 1	    1.08889	    0.88889;
	293	 1	 6.6	 4.2	 0.0	 0.0	 1	    1.09298	   -8.98746	 90.0	 1	    1.11111	    0.95556;
	294	 1	 13.1	 -5.4	 0.0	 0.0	 1	    1.04088	  -18.54767	 63.0	 1	    1.07937	    0.92063;
	295	 1	 1.0	 0.4	 0.0	 0.0	 1	    1.02757	  -14.71784	 63.0	 1	    1.06349	    0.93651;
	296	 1	 39.1	 2.9	 0.0	 0.0	 1	    1.02762	  -14.71437	 63.0	 1	    1.06349	    0.93651;
	297	 1	 0.0	 -0.9	 0.0	 0.0	 1	    1.01132	  -14.96708	 63.0	 1	    1.07937	    0.95238;
	298	 1	 16.8	 3.3	 0.0	 0.0	 1	    1.07502	   -7.02854	 225.0	 1	    1.08889	    0.88889;
	299	 1	 4.9	 -1.7	 0.0	 0.0	 1	    1.02914	  -15.00246	 63.0	 1	    1.07937	    0.95238;
	300	 1	 2.0	 -0.5	 0.0	 0.0	 1	    1.01421	  -16.16673	 63.0	 1	    1.06349	    0.93651;
	301	 1	 14.9	 -0.0	 0.0	 0.0	 1	    1.01394	  -12.39822	 63.0	 1	    1.06349	    0.93651;
	302	 1	 7.0	 3.1	 0.0	 0.0	 1	    1.08242	   -4.97242	 90.0	 1	    1.11111	    0.95556;
	303	 1	 54.5	 16.2	 0.0	 0.0	 1	    1.07887	   -2.85082	 225.0	 1	    1.08889	    0.88889;
	304	 1	 3.0	 0.4	 0.0	 0.0	 1	    1.02943	  -10.31740	 63.0	 1	    1.06349	    0.96825;
	305	 1	 9.8	 1.6	 0.0	 0.0	 1	    1.03564	  -10.04951	 63.0	 1	    1.06349	    0.93651;
	306	 1	 30.8	 3.7	 0.0	 0.0	 1	    1.05128	  -23.64521	 63.0	 1	    1.07937	    0.92063;
	307	 1	 26.6	 -5.1	 0.0	 0.0	 1	    1.04293	  -17.78293	 63.0	 1	    1.06349	    0.96825;
	308	 2	 0.0	 0.0	 0.0	 0.0	 1	    1.06349	  -14.13628	 63.0	 1	    1.06349	    0.93651;
	309	 1	 13.2	 -0.6	 0.0	 0.0	 1	    1.01966	  -10.35255	 63.0	 1	    1.07937	    0.95238;
	310	 1	 16.3	 -5.4	 0.0	 0.0	 1	    1.02807	  -19.27566	 90.0	 1	    1.06667	    0.97778;
	311	 1	 0.6	 0.2	 0.0	 0.0	 1	    1.03066	  -22.31421	 63.0	 1	    1.07937	    0.92063;
	312	 1	 7.0	 2.5	 0.0	 0.0	 1	    1.05254	  -20.58021	 63.0	 1	    1.06349	    0.96825;
	313	 1	 11.0	 3.5	 0.0	 0.0	 1	    1.05281	  -20.59921	 63.0	 1	    1.06349	    0.96825;
	314	 1	 0.5	 0.8	 0.0	 0.0	 1	    1.02180	  -16.96493	 90.0	 1	    1.06667	    0.97778;
	315	 1	 13.4	 3.1	 0.0	 0.0	 1	    1.02663	   -2.22748	 90.0	 1	    1.07778	    0.92222;
	316	 1	 23.7	 -0.8	 0.0	 0.0	 1	    1.03161	  -10.08378	 63.0	 1	    1.07937	    0.92063;
	317	 1	 0.0	 0.0	 0.0	 0.0	 1	    1.05964	   -7.14004	 225.0	 1	    1.08889	    1.00000;
	318	 1	 17.1	 -2.3	 0.0	 0.0	 1	    1.06976	   -5.72366	 90.0	 1	    1.07778	    0.97778;
	319	 1	 32.7	 2.6	 0.0	 0.0	 1	    1.03405	  -18.93713	 63.0	 1	    1.07937	    0.92063;
	320	 2	 2.8	 0.0	 0.0	 0.0	 1	    1.05265	  -18.01026	 63.0	 1	    1.07937	    0.92063;
	321	 1	 13.4	 4.0	 0.0	 0.0	 1	    1.01446	  -14.54789	 63.0	 1	    1.04762	    0.95238;
	322	 2	 0.0	 0.0	 0.0	 0.0	 1	    1.06052	  -20.23157	 63.0	 1	    1.07937	    0.92063;
	323	 1	 24.8	 -2.3	 0.0	 0.0	 1	    1.08269	   -9.55734	 90.0	 1	    1.10000	    0.94444;
	324	 1	 0.0	 0.0	 0.0	 0.0	 1	    1.07042	  -19.31720	 63.0	 1	    1.07937	    0.92063;
	325	 1	 0.0	 0.0	 0.0	 0.0	 1	    1.05636	  -10.79113	 225.0	 1	    1.08889	    1.00000;