%%%%%%%%%%%%%%%%%%%%%%%%%%%%%%%%%%%%%%%%%%%%%%%%%%%%%%%%%%%%%%%%%%%%%%%%%%%
%%%%                                                                  %%%%%
%%%%    IEEE PES Power Grid Library - Optimal Power Flow - v17.07     %%%%%
%%%%          (https://github.com/power-grid-lib/pglib-opf)           %%%%%
%%%%             Benchmark Group - Small Angle Difference             %%%%%
%%%%                         27 - June - 2017                         %%%%%
%%%%                                                                  %%%%%
%%%%%%%%%%%%%%%%%%%%%%%%%%%%%%%%%%%%%%%%%%%%%%%%%%%%%%%%%%%%%%%%%%%%%%%%%%%
function mpc = pglib_opf_case300_ieee__sad
mpc.version = '2';
mpc.baseMVA = 100.0;

%% bus data
%	bus_i	type	Pd	Qd	Gs	Bs	area	Vm	Va	baseKV	zone	Vmax	Vmin
mpc.bus = [
	1	 1	 90.0	 49.0	 0.0	 0.0	 1	    1.03615	   -3.43872	 115.0	 1	    1.06000	    0.94000;
	2	 1	 56.0	 15.0	 0.0	 0.0	 1	    1.04360	    3.46711	 115.0	 1	    1.06000	    0.94000;
	3	 1	 20.0	 0.0	 0.0	 0.0	 1	    1.00584	    1.01647	 230.0	 1	    1.06000	    0.94000;
	4	 1	 0.0	 0.0	 0.0	 0.0	 1	    1.04029	   -0.55671	 345.0	 1	    1.06000	    0.94000;
	5	 1	 353.0	 130.0	 0.0	 0.0	 1	    1.02831	   -3.61265	 115.0	 1	    1.06000	    0.94000;
	6	 1	 120.0	 41.0	 0.0	 0.0	 1	    1.03911	    2.42499	 115.0	 1	    1.06000	    0.94000;
	7	 1	 0.0	 0.0	 0.0	 0.0	 1	    1.00288	    0.32840	 230.0	 1	    1.06000	    0.94000;
	8	 2	 63.0	 14.0	 0.0	 0.0	 1	    1.02507	   -0.78219	 115.0	 1	    1.06000	    0.94000;
	9	 1	 96.0	 43.0	 0.0	 0.0	 1	    1.01570	   -2.01605	 115.0	 1	    1.06000	    0.94000;
	10	 2	 153.0	 33.0	 0.0	 0.0	 1	    1.03484	   -3.11368	 230.0	 1	    1.06000	    0.94000;
	11	 1	 83.0	 21.0	 0.0	 0.0	 1	    1.02259	    0.78642	 115.0	 1	    1.06000	    0.94000;
	12	 1	 0.0	 0.0	 0.0	 0.0	 1	    1.00928	   -0.94568	 230.0	 1	    1.06000	    0.94000;
	13	 1	 58.0	 10.0	 0.0	 0.0	 1	    1.01075	   -4.50915	 115.0	 1	    1.06000	    0.94000;
	14	 1	 160.0	 60.0	 0.0	 0.0	 1	    1.00316	   -7.32863	 115.0	 1	    1.06000	    0.94000;
	15	 1	 126.7	 23.0	 0.0	 0.0	 1	    1.03059	  -10.52461	 115.0	 1	    1.06000	    0.94000;
	16	 1	 0.0	 0.0	 0.0	 0.0	 1	    1.04171	   -6.55264	 345.0	 1	    1.06000	    0.94000;
	17	 1	 561.0	 220.0	 0.0	 0.0	 1	    1.05994	  -11.47197	 115.0	 1	    1.06000	    0.94000;
	19	 1	 0.0	 0.0	 0.0	 0.0	 1	    0.99830	   -5.47506	 230.0	 1	    1.06000	    0.94000;
	20	 2	 605.0	 120.0	 0.0	 0.0	 1	    1.01759	   -8.70976	 115.0	 1	    1.06000	    0.94000;
	21	 1	 77.0	 1.0	 0.0	 0.0	 1	    0.99092	   -5.03021	 230.0	 1	    1.06000	    0.94000;
	22	 1	 81.0	 23.0	 0.0	 0.0	 1	    1.01217	   -9.56935	 115.0	 1	    1.06000	    0.94000;
	23	 1	 21.0	 7.0	 0.0	 0.0	 1	    1.05867	   -8.08268	 115.0	 1	    1.06000	    0.94000;
	24	 1	 0.0	 0.0	 0.0	 0.0	 1	    1.02509	   -2.91740	 230.0	 1	    1.06000	    0.94000;
	25	 1	 45.0	 12.0	 0.0	 0.0	 1	    1.03502	  -10.03285	 115.0	 1	    1.06000	    0.94000;
	26	 1	 28.0	 9.0	 0.0	 0.0	 1	    1.01438	  -12.16635	 115.0	 1	    1.06000	    0.94000;
	27	 1	 69.0	 13.0	 0.0	 0.0	 1	    0.99143	  -13.59603	 115.0	 1	    1.06000	    0.94000;
	33	 1	 55.0	 6.0	 0.0	 0.0	 1	    1.03450	  -14.82602	 115.0	 1	    1.06000	    0.94000;
	34	 1	 0.0	 0.0	 0.0	 0.0	 1	    1.05332	  -11.41539	 345.0	 1	    1.06000	    0.94000;
	35	 1	 0.0	 0.0	 0.0	 0.0	 1	    0.99976	  -11.64633	 115.0	 1	    1.06000	    0.94000;
	36	 1	 0.0	 0.0	 0.0	 0.0	 1	    1.03144	  -12.25389	 230.0	 1	    1.06000	    0.94000;
	37	 1	 85.0	 32.0	 0.0	 0.0	 1	    1.02875	  -14.00440	 115.0	 1	    1.06000	    0.94000;
	38	 1	 155.0	 18.0	 0.0	 0.0	 1	    1.03036	  -15.17015	 115.0	 1	    1.06000	    0.94000;
	39	 1	 0.0	 0.0	 0.0	 0.0	 1	    1.06000	  -11.02468	 345.0	 1	    1.06000	    0.94000;
	40	 1	 46.0	 -21.0	 0.0	 0.0	 1	    1.03258	  -15.72890	 115.0	 1	    1.06000	    0.94000;
	41	 1	 86.0	 0.0	 0.0	 0.0	 1	    1.03708	  -13.25402	 115.0	 1	    1.06000	    0.94000;
	42	 1	 0.0	 0.0	 0.0	 0.0	 1	    1.05676	  -11.00823	 345.0	 1	    1.06000	    0.94000;
	43	 1	 39.0	 9.0	 0.0	 0.0	 1	    1.02242	  -17.29737	 115.0	 1	    1.06000	    0.94000;
	44	 1	 195.0	 29.0	 0.0	 0.0	 1	    1.03662	  -15.73949	 115.0	 1	    1.06000	    0.94000;
	45	 1	 0.0	 0.0	 0.0	 0.0	 1	    1.05058	  -13.27713	 230.0	 1	    1.06000	    0.94000;
	46	 1	 0.0	 0.0	 0.0	 0.0	 1	    1.05910	  -11.95069	 345.0	 1	    1.06000	    0.94000;
	47	 1	 58.0	 11.8	 0.0	 0.0	 1	    1.00716	  -18.61467	 115.0	 1	    1.06000	    0.94000;
	48	 1	 41.0	 19.0	 0.0	 0.0	 1	    1.02721	  -20.22833	 115.0	 1	    1.06000	    0.94000;
	49	 1	 92.0	 26.0	 0.0	 0.0	 1	    1.04383	   -3.53101	 115.0	 1	    1.06000	    0.94000;
	51	 1	 -5.0	 5.0	 0.0	 0.0	 1	    1.02880	   -9.83754	 115.0	 1	    1.06000	    0.94000;
	52	 1	 61.0	 28.0	 0.0	 0.0	 1	    1.00733	  -13.39435	 115.0	 1	    1.06000	    0.94000;
	53	 1	 69.0	 3.0	 0.0	 0.0	 1	    1.01797	  -17.86494	 115.0	 1	    1.06000	    0.94000;
	54	 1	 10.0	 1.0	 0.0	 0.0	 1	    1.02721	  -16.16617	 115.0	 1	    1.06000	    0.94000;
	55	 1	 22.0	 10.0	 0.0	 0.0	 1	    1.02828	  -13.65877	 115.0	 1	    1.06000	    0.94000;
	57	 1	 98.0	 20.0	 0.0	 0.0	 1	    1.02389	  -15.03172	 115.0	 1	    1.06000	    0.94000;
	58	 1	 14.0	 1.0	 0.0	 0.0	 1	    1.01116	   -9.40848	 115.0	 1	    1.06000	    0.94000;
	59	 1	 218.0	 106.0	 0.0	 0.0	 1	    1.00476	   -7.54670	 115.0	 1	    1.06000	    0.94000;
	60	 1	 0.0	 0.0	 0.0	 0.0	 1	    1.05781	  -10.38214	 230.0	 1	    1.06000	    0.94000;
	61	 1	 227.0	 110.0	 0.0	 0.0	 1	    1.01793	   -5.23487	 115.0	 1	    1.06000	    0.94000;
	62	 1	 0.0	 0.0	 0.0	 0.0	 1	    1.04499	   -5.55759	 230.0	 1	    1.06000	    0.94000;
	63	 2	 70.0	 30.0	 0.0	 0.0	 1	    0.98847	  -21.85946	 115.0	 1	    1.06000	    0.94000;
	64	 1	 0.0	 0.0	 0.0	 0.0	 1	    0.97738	  -17.28171	 230.0	 1	    1.06000	    0.94000;
	69	 1	 0.0	 0.0	 0.0	 0.0	 1	    0.99621	  -13.74763	 115.0	 1	    1.06000	    0.94000;
	70	 1	 56.0	 20.0	 0.0	 0.0	 1	    0.98791	  -18.80516	 115.0	 1	    1.06000	    0.94000;
	71	 1	 116.0	 38.0	 0.0	 0.0	 1	    1.01413	  -13.88787	 115.0	 1	    1.06000	    0.94000;
	72	 1	 57.0	 19.0	 0.0	 0.0	 1	    0.99774	  -12.31395	 115.0	 1	    1.06000	    0.94000;
	73	 1	 224.0	 71.0	 0.0	 0.0	 1	    1.00056	  -14.66410	 115.0	 1	    1.06000	    0.94000;
	74	 1	 0.0	 0.0	 0.0	 0.0	 1	    1.02846	  -13.83898	 230.0	 1	    1.06000	    0.94000;
	76	 2	 208.0	 107.0	 0.0	 0.0	 1	    0.98814	  -12.48225	 115.0	 1	    1.06000	    0.94000;
	77	 1	 74.0	 28.0	 0.0	 0.0	 1	    1.01306	   -8.95263	 115.0	 1	    1.06000	    0.94000;
	78	 1	 0.0	 0.0	 0.0	 0.0	 1	    1.01948	   -7.17770	 115.0	 1	    1.06000	    0.94000;
	79	 1	 48.0	 14.0	 0.0	 0.0	 1	    1.00993	  -10.24481	 115.0	 1	    1.06000	    0.94000;
	80	 1	 28.0	 7.0	 0.0	 0.0	 1	    1.01810	  -11.57399	 115.0	 1	    1.06000	    0.94000;
	81	 1	 0.0	 0.0	 0.0	 0.0	 1	    1.05786	  -12.02085	 345.0	 1	    1.06000	    0.94000;
	84	 2	 37.0	 13.0	 0.0	 0.0	 1	    1.06000	    7.95770	 115.0	 1	    1.06000	    0.94000;
	85	 1	 0.0	 0.0	 0.0	 0.0	 1	    1.05016	  -22.22321	 230.0	 1	    1.06000	    0.94000;
	86	 1	 0.0	 0.0	 0.0	 0.0	 1	    1.04179	  -20.32642	 230.0	 1	    1.06000	    0.94000;
	87	 1	 0.0	 0.0	 0.0	 0.0	 1	    1.02298	  -14.83839	 230.0	 1	    1.06000	    0.94000;
	88	 1	 0.0	 0.0	 0.0	 0.0	 1	    1.04221	  -12.68018	 230.0	 1	    1.06000	    0.94000;
	89	 1	 44.2	 0.0	 0.0	 0.0	 1	    1.03405	  -18.01424	 115.0	 1	    1.06000	    0.94000;
	90	 1	 66.0	 0.0	 0.0	 0.0	 1	    1.02665	  -17.52989	 115.0	 1	    1.06000	    0.94000;
	91	 2	 17.4	 0.0	 0.0	 0.0	 1	    1.06000	  -20.45219	 115.0	 1	    1.06000	    0.94000;
	92	 2	 15.8	 0.0	 0.0	 0.0	 1	    1.06000	  -18.99287	 115.0	 1	    1.06000	    0.94000;
	94	 1	 60.3	 0.0	 0.0	 0.0	 1	    1.02402	  -17.10703	 115.0	 1	    1.06000	    0.94000;
	97	 1	 39.9	 0.0	 0.0	 0.0	 1	    1.05146	  -21.71513	 115.0	 1	    1.06000	    0.94000;
	98	 2	 66.7	 0.0	 0.0	 0.0	 1	    1.06000	  -21.30049	 115.0	 1	    1.06000	    0.94000;
	99	 1	 83.5	 0.0	 0.0	 0.0	 1	    1.05700	  -23.55892	 115.0	 1	    1.06000	    0.94000;
	100	 1	 0.0	 0.0	 0.0	 0.0	 1	    1.05397	  -21.71995	 115.0	 1	    1.06000	    0.94000;
	102	 1	 77.8	 0.0	 0.0	 0.0	 1	    1.05162	  -21.96266	 115.0	 1	    1.06000	    0.94000;
	103	 1	 32.0	 0.0	 0.0	 0.0	 1	    1.05105	  -21.74848	 115.0	 1	    1.06000	    0.94000;
	104	 1	 8.6	 0.0	 0.0	 0.0	 1	    1.05495	  -22.86184	 115.0	 1	    1.06000	    0.94000;
	105	 1	 49.6	 0.0	 0.0	 0.0	 1	    1.04818	  -21.90750	 115.0	 1	    1.06000	    0.94000;
	107	 1	 4.6	 0.0	 0.0	 0.0	 1	    1.03970	  -21.62519	 115.0	 1	    1.06000	    0.94000;
	108	 2	 112.1	 0.0	 0.0	 0.0	 1	    1.06000	  -23.47453	 115.0	 1	    1.06000	    0.94000;
	109	 1	 30.7	 0.0	 0.0	 0.0	 1	    1.02529	  -26.30154	 115.0	 1	    1.06000	    0.94000;
	110	 1	 63.0	 0.0	 0.0	 0.0	 1	    1.02962	  -26.91327	 115.0	 1	    1.06000	    0.94000;
	112	 1	 19.6	 0.0	 0.0	 0.0	 1	    1.01740	  -26.92795	 115.0	 1	    1.06000	    0.94000;
	113	 1	 26.2	 0.0	 0.0	 0.0	 1	    1.00444	  -22.21264	 115.0	 1	    1.06000	    0.94000;
	114	 1	 18.2	 0.0	 0.0	 0.0	 1	    1.01822	  -26.44357	 115.0	 1	    1.06000	    0.94000;
	115	 1	 0.0	 0.0	 0.0	 0.0	 1	    0.98030	  -23.46204	 115.0	 2	    1.06000	    0.94000;
	116	 1	 0.0	 0.0	 0.0	 0.0	 1	    1.04664	  -20.54329	 115.0	 2	    1.06000	    0.94000;
	117	 1	 0.0	 0.0	 0.0	 325.0	 1	    0.96024	  -15.67939	 115.0	 2	    1.06000	    0.94000;
	118	 1	 14.1	 650.0	 0.0	 0.0	 1	    0.95527	  -15.27193	 115.0	 2	    1.06000	    0.94000;
	119	 2	 0.0	 0.0	 0.0	 0.0	 1	    1.06000	   -8.45734	 115.0	 2	    1.06000	    0.94000;
	120	 1	 777.0	 215.0	 0.0	 55.0	 1	    0.98411	  -20.49830	 115.0	 2	    1.06000	    0.94000;
	121	 1	 535.0	 55.0	 0.0	 0.0	 1	    1.01160	  -23.57649	 115.0	 2	    1.06000	    0.94000;
	122	 1	 229.1	 11.8	 0.0	 0.0	 1	    0.99250	  -23.50790	 115.0	 2	    1.06000	    0.94000;
	123	 1	 78.0	 1.4	 0.0	 0.0	 1	    1.01990	  -24.77773	 115.0	 2	    1.06000	    0.94000;
	124	 2	 276.4	 59.3	 0.0	 0.0	 1	    1.04676	  -20.71063	 115.0	 2	    1.06000	    0.94000;
	125	 2	 514.8	 82.7	 0.0	 0.0	 1	    1.02167	  -24.55516	 115.0	 2	    1.06000	    0.94000;
	126	 1	 57.9	 5.1	 0.0	 0.0	 1	    1.00678	  -18.85425	 115.0	 2	    1.06000	    0.94000;
	127	 1	 380.8	 37.0	 0.0	 0.0	 1	    1.00422	  -14.45943	 230.0	 2	    1.06000	    0.94000;
	128	 1	 0.0	 0.0	 0.0	 0.0	 1	    1.00386	   -7.58273	 230.0	 2	    1.06000	    0.94000;
	129	 1	 0.0	 0.0	 0.0	 0.0	 1	    1.00422	   -7.30398	 230.0	 2	    1.06000	    0.94000;
	130	 1	 0.0	 0.0	 0.0	 0.0	 1	    1.03105	   -0.70559	 230.0	 2	    1.06000	    0.94000;
	131	 1	 0.0	 0.0	 0.0	 0.0	 1	    0.99591	    0.08045	 230.0	 2	    1.06000	    0.94000;
	132	 1	 0.0	 0.0	 0.0	 0.0	 1	    1.01612	   -3.25588	 230.0	 2	    1.06000	    0.94000;
	133	 1	 0.0	 0.0	 0.0	 0.0	 1	    0.99909	   -7.01837	 230.0	 2	    1.06000	    0.94000;
	134	 1	 0.0	 0.0	 0.0	 0.0	 1	    1.02866	  -11.65193	 230.0	 2	    1.06000	    0.94000;
	135	 1	 169.2	 41.6	 0.0	 0.0	 1	    1.02772	  -10.87466	 230.0	 2	    1.06000	    0.94000;
	136	 1	 55.2	 18.2	 0.0	 0.0	 1	    1.05618	   -3.73923	 230.0	 2	    1.06000	    0.94000;
	137	 1	 273.6	 99.8	 0.0	 0.0	 1	    1.04089	    0.02997	 230.0	 2	    1.06000	    0.94000;
	138	 2	 1019.2	 135.2	 0.0	 0.0	 1	    1.06000	   -3.87787	 230.0	 2	    1.06000	    0.94000;
	139	 1	 595.0	 83.3	 0.0	 0.0	 1	    1.01221	  -11.07328	 115.0	 2	    1.06000	    0.94000;
	140	 1	 387.7	 114.7	 0.0	 0.0	 1	    1.03457	   -5.98593	 230.0	 2	    1.06000	    0.94000;
	141	 2	 145.0	 58.0	 0.0	 0.0	 1	    1.04837	   -4.78537	 230.0	 2	    1.06000	    0.94000;
	142	 1	 56.5	 24.5	 0.0	 0.0	 1	    1.01311	   -8.70537	 230.0	 2	    1.06000	    0.94000;
	143	 2	 89.5	 35.5	 0.0	 0.0	 1	    1.04563	   -2.36828	 230.0	 2	    1.06000	    0.94000;
	144	 1	 0.0	 0.0	 0.0	 0.0	 1	    1.04281	   -5.29778	 230.0	 2	    1.06000	    0.94000;
	145	 1	 24.0	 14.0	 0.0	 0.0	 1	    1.00817	   -8.64548	 230.0	 2	    1.06000	    0.94000;
	146	 2	 0.0	 0.0	 0.0	 0.0	 1	    1.05844	   -5.92898	 230.0	 2	    1.06000	    0.94000;
	147	 2	 0.0	 0.0	 0.0	 0.0	 1	    1.06000	   -5.97116	 230.0	 2	    1.06000	    0.94000;
	148	 1	 63.0	 25.0	 0.0	 0.0	 1	    1.06000	   -6.55780	 230.0	 2	    1.06000	    0.94000;
	149	 2	 0.0	 0.0	 0.0	 0.0	 1	    1.05484	   -4.86671	 230.0	 2	    1.06000	    0.94000;
	150	 1	 0.0	 0.0	 0.0	 0.0	 1	    0.99612	    0.49740	 230.0	 2	    1.06000	    0.94000;
	151	 1	 0.0	 0.0	 0.0	 0.0	 1	    1.01648	   -2.19417	 230.0	 2	    1.06000	    0.94000;
	152	 2	 17.0	 9.0	 0.0	 0.0	 1	    1.06000	    0.31226	 230.0	 2	    1.06000	    0.94000;
	153	 2	 0.0	 0.0	 0.0	 0.0	 1	    1.04164	   -2.25995	 230.0	 2	    1.06000	    0.94000;
	154	 1	 70.0	 5.0	 0.0	 34.5	 1	    0.97305	  -16.59536	 115.0	 2	    1.06000	    0.94000;
	155	 1	 200.0	 50.0	 0.0	 0.0	 1	    1.03217	  -10.43050	 230.0	 2	    1.06000	    0.94000;
	156	 2	 75.0	 50.0	 0.0	 0.0	 1	    0.96937	  -11.85250	 115.0	 2	    1.06000	    0.94000;
	157	 1	 123.5	 -24.3	 0.0	 0.0	 1	    1.00376	  -20.78598	 230.0	 2	    1.06000	    0.94000;
	158	 1	 0.0	 0.0	 0.0	 0.0	 1	    1.01698	  -19.39318	 230.0	 2	    1.06000	    0.94000;
	159	 1	 33.0	 16.5	 0.0	 0.0	 1	    1.00803	  -19.12968	 230.0	 2	    1.06000	    0.94000;
	160	 1	 0.0	 0.0	 0.0	 0.0	 1	    1.02112	  -20.13327	 230.0	 2	    1.06000	    0.94000;
	161	 1	 35.0	 15.0	 0.0	 0.0	 1	    1.03790	   -5.37760	 230.0	 2	    1.06000	    0.94000;
	162	 1	 85.0	 24.0	 0.0	 0.0	 1	    1.03533	   -9.95928	 230.0	 2	    1.06000	    0.94000;
	163	 1	 0.0	 0.4	 0.0	 0.0	 1	    1.05563	   -3.79307	 230.0	 2	    1.06000	    0.94000;
	164	 1	 0.0	 0.0	 0.0	 -212.0	 1	    1.01172	   -8.86738	 230.0	 2	    1.06000	    0.94000;
	165	 1	 0.0	 0.0	 0.0	 0.0	 1	    1.03633	   -9.57341	 230.0	 2	    1.06000	    0.94000;
	166	 1	 0.0	 0.0	 0.0	 -103.0	 1	    1.02605	   -9.36751	 230.0	 2	    1.06000	    0.94000;
	167	 1	 299.9	 95.7	 0.0	 0.0	 1	    0.97594	  -10.25879	 230.0	 2	    1.06000	    0.94000;
	168	 1	 0.0	 0.0	 0.0	 0.0	 1	    1.00383	   -7.59844	 230.0	 2	    1.06000	    0.94000;
	169	 1	 0.0	 0.0	 0.0	 0.0	 1	    0.98847	   -9.40852	 230.0	 2	    1.06000	    0.94000;
	170	 2	 481.8	 205.0	 0.0	 0.0	 1	    0.94000	   -6.40334	 115.0	 2	    1.06000	    0.94000;
	171	 2	 763.6	 291.1	 0.0	 0.0	 1	    0.97991	  -11.52006	 115.0	 2	    1.06000	    0.94000;
	172	 1	 26.5	 0.0	 0.0	 0.0	 1	    1.02240	  -12.95670	 115.0	 2	    1.06000	    0.94000;
	173	 1	 163.5	 43.0	 0.0	 53.0	 1	    0.98351	  -20.60783	 115.0	 2	    1.06000	    0.94000;
	174	 1	 0.0	 0.0	 0.0	 0.0	 1	    1.06000	   -8.20732	 115.0	 2	    1.06000	    0.94000;
	175	 1	 176.0	 83.0	 0.0	 0.0	 1	    0.97271	  -14.29697	 115.0	 2	    1.06000	    0.94000;
	176	 2	 5.0	 4.0	 0.0	 0.0	 1	    1.03412	   -9.19598	 115.0	 2	    1.06000	    0.94000;
	177	 2	 28.0	 12.0	 0.0	 0.0	 1	    1.00729	   -9.84747	 115.0	 2	    1.06000	    0.94000;
	178	 1	 427.4	 173.6	 0.0	 0.0	 1	    0.94000	  -15.23804	 115.0	 2	    1.06000	    0.94000;
	179	 1	 74.0	 29.0	 0.0	 45.0	 1	    0.96963	  -17.13148	 115.0	 2	    1.06000	    0.94000;
	180	 1	 69.5	 49.3	 0.0	 0.0	 1	    0.97950	  -11.64791	 115.0	 2	    1.06000	    0.94000;
	181	 1	 73.4	 0.0	 0.0	 0.0	 1	    1.04748	    0.76645	 230.0	 2	    1.06000	    0.94000;
	182	 1	 240.7	 89.0	 0.0	 0.0	 1	    1.03597	   -8.69383	 230.0	 2	    1.06000	    0.94000;
	183	 1	 40.0	 4.0	 0.0	 0.0	 1	    0.97123	   -5.94980	 115.0	 2	    1.06000	    0.94000;
	184	 1	 136.8	 16.6	 0.0	 0.0	 1	    1.04542	   -9.45872	 230.0	 2	    1.06000	    0.94000;
	185	 2	 0.0	 0.0	 0.0	 0.0	 1	    1.06000	   -6.34748	 230.0	 2	    1.06000	    0.94000;
	186	 2	 59.8	 24.3	 0.0	 0.0	 1	    1.06000	    8.17305	 230.0	 2	    1.06000	    0.94000;
	187	 2	 59.8	 24.3	 0.0	 0.0	 1	    1.06000	    4.82422	 230.0	 2	    1.06000	    0.94000;
	188	 1	 182.6	 43.6	 0.0	 0.0	 1	    1.04794	    2.15605	 230.0	 2	    1.06000	    0.94000;
	189	 1	 7.0	 2.0	 0.0	 0.0	 1	    1.04304	  -17.13579	 66.0	 3	    1.06000	    0.94000;
	190	 2	 0.0	 0.0	 0.0	 -150.0	 1	    1.04572	  -11.17344	 345.0	 3	    1.06000	    0.94000;
	191	 2	 489.0	 53.0	 0.0	 0.0	 1	    1.04128	   -8.18609	 230.0	 3	    1.06000	    0.94000;
	192	 1	 800.0	 72.0	 0.0	 0.0	 1	    0.97158	  -23.78446	 230.0	 3	    1.06000	    0.94000;
	193	 1	 0.0	 0.0	 0.0	 0.0	 1	    1.03256	  -17.28942	 66.0	 3	    1.06000	    0.94000;
	194	 1	 0.0	 0.0	 0.0	 0.0	 1	    1.06000	  -10.75673	 345.0	 3	    1.06000	    0.94000;
	195	 1	 0.0	 0.0	 0.0	 0.0	 1	    1.05250	  -12.24602	 345.0	 3	    1.06000	    0.94000;
	196	 1	 10.0	 3.0	 0.0	 0.0	 1	    1.01034	  -16.19554	 115.0	 3	    1.06000	    0.94000;
	197	 1	 43.0	 14.0	 0.0	 0.0	 1	    1.03026	  -14.53301	 115.0	 3	    1.06000	    0.94000;
	198	 2	 64.0	 21.0	 0.0	 0.0	 1	    1.06000	  -11.69284	 115.0	 3	    1.06000	    0.94000;
	199	 1	 35.0	 12.0	 0.0	 0.0	 1	    0.99630	  -17.06509	 115.0	 3	    1.06000	    0.94000;
	200	 1	 27.0	 12.0	 0.0	 0.0	 1	    0.99698	  -17.11555	 115.0	 3	    1.06000	    0.94000;
	201	 1	 41.0	 14.0	 0.0	 0.0	 1	    1.01233	  -16.04905	 66.0	 1	    1.06000	    0.94000;
	202	 1	 38.0	 13.0	 0.0	 0.0	 1	    1.02823	  -15.78213	 66.0	 3	    1.06000	    0.94000;
	203	 1	 42.0	 14.0	 0.0	 0.0	 1	    1.04407	  -13.17714	 115.0	 3	    1.06000	    0.94000;
	204	 1	 72.0	 24.0	 0.0	 0.0	 1	    1.01595	  -16.05643	 66.0	 3	    1.06000	    0.94000;
	205	 1	 0.0	 -5.0	 0.0	 0.0	 1	    1.02625	  -17.12210	 66.0	 3	    1.06000	    0.94000;
	206	 1	 12.0	 2.0	 0.0	 0.0	 1	    1.03271	  -22.08886	 66.0	 3	    1.06000	    0.94000;
	207	 1	 -21.0	 -14.2	 0.0	 0.0	 1	    1.04122	  -23.65821	 66.0	 1	    1.06000	    0.94000;
	208	 1	 7.0	 2.0	 0.0	 0.0	 1	    1.03689	  -17.88466	 66.0	 3	    1.06000	    0.94000;
	209	 1	 38.0	 13.0	 0.0	 0.0	 1	    1.04709	  -16.80692	 66.0	 3	    1.06000	    0.94000;
	210	 1	 0.0	 0.0	 0.0	 0.0	 1	    1.02186	  -15.27943	 115.0	 3	    1.06000	    0.94000;
	211	 1	 96.0	 7.0	 0.0	 0.0	 1	    1.03608	  -13.89502	 115.0	 3	    1.06000	    0.94000;
	212	 1	 0.0	 0.0	 0.0	 0.0	 1	    1.04332	  -13.70961	 138.0	 3	    1.06000	    0.94000;
	213	 2	 0.0	 0.0	 0.0	 0.0	 1	    1.06000	  -14.79821	 16.5	 3	    1.06000	    0.94000;
	214	 1	 22.0	 16.0	 0.0	 0.0	 1	    1.03369	  -14.70227	 138.0	 3	    1.06000	    0.94000;
	215	 1	 47.0	 26.0	 0.0	 0.0	 1	    1.02219	  -15.12950	 138.0	 3	    1.06000	    0.94000;
	216	 1	 176.0	 105.0	 0.0	 0.0	 1	    1.00578	  -15.51427	 138.0	 3	    1.06000	    0.94000;
	217	 1	 100.0	 75.0	 0.0	 0.0	 1	    1.03488	  -11.84409	 138.0	 3	    1.06000	    0.94000;
	218	 1	 131.0	 96.0	 0.0	 0.0	 1	    1.02013	  -11.58303	 138.0	 3	    1.06000	    0.94000;
	219	 1	 0.0	 0.0	 0.0	 0.0	 1	    1.05463	  -11.29443	 345.0	 3	    1.06000	    0.94000;
	220	 2	 285.0	 100.0	 0.0	 0.0	 1	    1.04194	   -8.37189	 138.0	 3	    1.06000	    0.94000;
	221	 2	 171.0	 70.0	 0.0	 0.0	 1	    1.04796	  -12.14653	 138.0	 3	    1.06000	    0.94000;
	222	 2	 328.0	 188.0	 0.0	 0.0	 1	    1.00909	  -20.27199	 20.0	 3	    1.06000	    0.94000;
	223	 1	 428.0	 232.0	 0.0	 0.0	 1	    1.04307	  -12.53307	 138.0	 3	    1.06000	    0.94000;
	224	 1	 173.0	 99.0	 0.0	 0.0	 1	    1.03226	  -14.53753	 230.0	 3	    1.06000	    0.94000;
	225	 1	 410.0	 40.0	 0.0	 0.0	 1	    0.98064	  -22.58437	 230.0	 3	    1.06000	    0.94000;
	226	 1	 0.0	 0.0	 0.0	 0.0	 1	    1.04153	  -13.70622	 230.0	 3	    1.06000	    0.94000;
	227	 2	 538.0	 369.0	 0.0	 0.0	 1	    0.97784	  -14.00337	 27.0	 3	    1.06000	    0.94000;
	228	 1	 223.0	 148.0	 0.0	 0.0	 1	    1.04647	   -8.28147	 138.0	 3	    1.06000	    0.94000;
	229	 1	 96.0	 46.0	 0.0	 0.0	 1	    1.05422	   -7.24319	 138.0	 3	    1.06000	    0.94000;
	230	 2	 0.0	 0.0	 0.0	 0.0	 1	    1.06000	    0.68086	 20.0	 3	    1.06000	    0.94000;
	231	 1	 159.0	 107.0	 0.0	 -300.0	 1	    1.04847	  -11.38337	 345.0	 3	    1.06000	    0.94000;
	232	 1	 448.0	 143.0	 0.0	 0.0	 1	    1.03944	  -13.22584	 138.0	 3	    1.06000	    0.94000;
	233	 2	 404.0	 212.0	 0.0	 0.0	 1	    1.01845	  -14.84205	 66.0	 3	    1.06000	    0.94000;
	234	 1	 572.0	 244.0	 0.0	 0.0	 1	    1.04498	   -7.53130	 138.0	 3	    1.06000	    0.94000;
	235	 1	 269.0	 157.0	 0.0	 0.0	 1	    1.04446	   -7.53531	 138.0	 3	    1.06000	    0.94000;
	236	 2	 0.0	 0.0	 0.0	 0.0	 1	    1.01843	    0.52895	 20.0	 3	    1.06000	    0.94000;
	237	 1	 0.0	 0.0	 0.0	 0.0	 1	    1.05093	  -11.16059	 345.0	 3	    1.06000	    0.94000;
	238	 2	 255.0	 149.0	 0.0	 -150.0	 1	    1.04557	   -7.46158	 138.0	 3	    1.06000	    0.94000;
	239	 2	 0.0	 0.0	 0.0	 0.0	 1	    1.06000	   -2.27841	 138.0	 3	    1.06000	    0.94000;
	240	 1	 0.0	 0.0	 0.0	 -140.0	 1	    1.01480	  -10.68206	 230.0	 3	    1.06000	    0.94000;
	241	 2	 0.0	 0.0	 0.0	 0.0	 1	    1.02221	   -3.30040	 20.0	 3	    1.06000	    0.94000;
	242	 2	 0.0	 0.0	 0.0	 0.0	 1	    1.03508	  -14.29876	 138.0	 3	    1.06000	    0.94000;
	243	 2	 8.0	 3.0	 0.0	 0.0	 1	    1.06000	    0.96100	 66.0	 3	    1.06000	    0.94000;
	244	 1	 0.0	 0.0	 0.0	 0.0	 1	    1.02944	   -2.63953	 66.0	 3	    1.06000	    0.94000;
	245	 1	 61.0	 30.0	 0.0	 0.0	 1	    0.99974	  -10.65264	 66.0	 3	    1.06000	    0.94000;
	246	 1	 77.0	 33.0	 0.0	 0.0	 1	    0.99105	   -8.62511	 66.0	 3	    1.06000	    0.94000;
	247	 1	 61.0	 30.0	 0.0	 0.0	 1	    1.00417	  -14.10673	 66.0	 3	    1.06000	    0.94000;
	248	 1	 29.0	 14.0	 0.0	 45.6	 1	    1.01793	  -17.12295	 66.0	 3	    1.06000	    0.94000;
	249	 1	 29.0	 14.0	 0.0	 0.0	 1	    1.01731	  -17.51318	 66.0	 3	    1.06000	    0.94000;
	250	 1	 -23.0	 -17.0	 0.0	 0.0	 1	    1.06000	  -15.79997	 66.0	 3	    1.06000	    0.94000;
	281	 1	 -33.1	 -29.4	 0.0	 0.0	 1	    1.01616	  -10.60796	 230.0	 3	    1.06000	    0.94000;
	319	 1	 115.8	 -24.0	 0.0	 0.0	 1	    1.03475	   -7.29298	 230.0	 1	    1.06000	    0.94000;
	320	 1	 2.4	 -12.6	 0.0	 0.0	 1	    1.03018	  -12.65199	 115.0	 1	    1.06000	    0.94000;
	322	 1	 2.4	 -3.9	 0.0	 0.0	 1	    1.05949	  -23.12135	 115.0	 1	    1.06000	    0.94000;
	323	 1	 -14.9	 26.5	 0.0	 0.0	 1	    1.03259	  -19.87648	 230.0	 1	    1.06000	    0.94000;
	324	 1	 24.7	 -1.2	 0.0	 0.0	 1	    1.04652	  -26.22943	 115.0	 1	    1.06000	    0.94000;
	526	 1	 145.3	 -34.9	 0.0	 0.0	 1	    0.97630	  -37.45783	 115.0	 1	    1.06000	    0.94000;
	528	 1	 28.1	 -20.5	 0.0	 0.0	 1	    1.00840	  -21.05224	 115.0	 1	    1.06000	    0.94000;
	531	 1	 14.0	 2.5	 0.0	 0.0	 1	    0.98888	  -13.84605	 115.0	 1	    1.06000	    0.94000;
	552	 1	 -11.1	 -1.4	 0.0	 0.0	 1	    1.02995	   -7.46512	 115.0	 1	    1.06000	    0.94000;
	562	 1	 50.5	 17.4	 0.0	 0.0	 1	    1.01333	  -19.46921	 230.0	 1	    1.06000	    0.94000;
	609	 1	 29.6	 0.6	 0.0	 0.0	 1	    0.98864	  -12.57801	 115.0	 1	    1.06000	    0.94000;
	664	 1	 -113.7	 76.7	 0.0	 0.0	 1	    1.04240	   -8.59210	 345.0	 3	    1.06000	    0.94000;
	1190	 1	 100.31	 29.17	 0.0	 0.0	 1	    1.02915	   -9.68054	 86.0	 2	    1.06000	    0.94000;
	1200	 1	 -100.0	 34.17	 0.0	 0.0	 1	    1.05231	  -19.31681	 86.0	 2	    1.06000	    0.94000;
	1201	 1	 0.0	 0.0	 0.0	 0.0	 1	    1.04149	  -27.69391	 115.0	 2	    1.06000	    0.94000;
	2040	 1	 0.0	 0.0	 0.0	 0.0	 1	    1.00636	   -5.77486	 115.0	 3	    1.06000	    0.94000;
	7001	 2	 0.0	 0.0	 0.0	 0.0	 1	    1.06000	   -3.43871	 13.8	 1	    1.06000	    0.94000;
	7002	 2	 0.0	 0.0	 0.0	 0.0	 1	    1.06000	    8.48711	 13.8	 1	    1.06000	    0.94000;
	7003	 2	 0.0	 0.0	 0.0	 0.0	 1	    1.03837	    9.14430	 13.8	 1	    1.06000	    0.94000;
	7011	 2	 0.0	 0.0	 0.0	 0.0	 1	    1.03361	    7.76706	 13.8	 1	    1.06000	    0.94000;
	7012	 2	 0.0	 0.0	 0.0	 0.0	 1	    1.06000	    4.44023	 13.8	 1	    1.06000	    0.94000;
	7017	 2	 0.0	 0.0	 0.0	 0.0	 1	    1.03091	   -7.46555	 13.8	 1	    1.06000	    0.94000;
	7023	 2	 0.0	 0.0	 0.0	 0.0	 1	    1.06000	   -8.08268	 13.8	 1	    1.06000	    0.94000;
	7024	 2	 0.0	 0.0	 0.0	 0.0	 1	    1.06000	    3.18142	 13.8	 1	    1.06000	    0.94000;
	7039	 2	 0.0	 0.0	 0.0	 0.0	 1	    1.03179	  -11.02468	 20.0	 1	    1.06000	    0.94000;
	7044	 2	 0.0	 0.0	 0.0	 0.0	 1	    1.03311	   -7.96730	 13.8	 1	    1.06000	    0.94000;
	7049	 3	 0.0	 0.0	 0.0	 0.0	 1	    1.04304	    0.00000	 13.8	 1	    1.06000	    0.94000;
	7055	 2	 0.0	 0.0	 0.0	 0.0	 1	    1.00214	   -5.45576	 13.8	 1	    1.06000	    0.94000;
	7057	 2	 0.0	 0.0	 0.0	 0.0	 1	    1.01541	  -14.43262	 13.8	 1	    1.06000	    0.94000;
	7061	 2	 0.0	 0.0	 0.0	 0.0	 1	    1.04397	    2.02045	 13.8	 1	    1.06000	    0.94000;
	7062	 2	 0.0	 0.0	 0.0	 0.0	 1	    1.03201	   -1.18036	 13.8	 1	    1.06000	    0.94000;
	7071	 2	 0.0	 0.0	 0.0	 0.0	 1	    1.01582	   -6.41958	 13.8	 1	    1.06000	    0.94000;
	7130	 2	 0.0	 0.0	 0.0	 0.0	 1	    1.06000	    8.91575	 13.8	 2	    1.06000	    0.94000;
	7139	 2	 0.0	 0.0	 0.0	 0.0	 1	    1.06000	   -8.42775	 13.8	 2	    1.06000	    0.94000;
	7166	 2	 0.0	 0.0	 0.0	 0.0	 1	    1.02940	   -9.11969	 13.8	 2	    1.06000	    0.94000;
	9001	 1	 0.0	 0.0	 0.0	 0.0	 1	    1.02039	  -14.01827	 115.0	 9	    1.06000	    0.94000;
	9002	 2	 4.2	 0.0	 0.0	 0.0	 1	    1.00382	  -21.49305	 6.6	 9	    1.06000	    0.94000;
	9003	 1	 2.71	 0.94	 0.14	 2.4	 1	    0.99381	  -22.30546	 6.6	 9	    1.06000	    0.94000;
	9004	 1	 0.86	 0.28	 0.0	 0.0	 1	    0.98737	  -22.44000	 6.6	 9	    1.06000	    0.94000;
	9005	 1	 0.0	 0.0	 0.0	 0.0	 1	    1.02112	  -14.04823	 115.0	 9	    1.06000	    0.94000;
	9006	 1	 0.0	 0.0	 0.0	 0.0	 1	    1.01299	  -20.08670	 6.6	 9	    1.06000	    0.94000;
	9007	 1	 0.0	 0.0	 0.0	 0.0	 1	    1.00168	  -21.32446	 6.6	 9	    1.06000	    0.94000;
	9012	 1	 0.0	 0.0	 0.0	 0.0	 1	    1.01152	  -19.93113	 6.6	 9	    1.06000	    0.94000;
	9021	 1	 4.75	 1.56	 0.0	 0.0	 1	    0.99809	  -21.70973	 6.6	 9	    1.06000	    0.94000;
	9022	 1	 1.53	 0.53	 0.08	 0.0	 1	    0.97450	  -24.23531	 0.6	 9	    1.06000	    0.94000;
	9023	 1	 0.0	 0.0	 0.0	 0.0	 1	    0.98421	  -22.01365	 6.6	 9	    1.06000	    0.94000;
	9024	 1	 1.35	 0.47	 0.07	 0.0	 1	    0.98007	  -24.01285	 0.6	 9	    1.06000	    0.94000;
	9025	 1	 0.45	 0.16	 0.02	 0.0	 1	    0.97436	  -23.05509	 0.6	 9	    1.06000	    0.94000;
	9026	 1	 0.45	 0.16	 0.02	 0.0	 1	    0.97520	  -22.96751	 0.6	 9	    1.06000	    0.94000;
	9031	 1	 1.84	 0.64	 0.1	 0.0	 1	    0.94289	  -27.53530	 0.6	 9	    1.06000	    0.94000;
	9032	 1	 1.39	 0.48	 0.07	 0.0	 1	    0.95504	  -26.37277	 0.6	 9	    1.06000	    0.94000;
	9033	 1	 1.89	 0.65	 0.1	 0.0	 1	    0.94000	  -27.84319	 0.6	 9	    1.06000	    0.94000;
	9034	 1	 1.55	 0.54	 0.08	 1.72	 1	    1.00808	  -23.69336	 0.6	 9	    1.06000	    0.94000;
	9035	 1	 1.66	 0.58	 0.09	 0.0	 1	    0.96129	  -25.73232	 0.6	 9	    1.06000	    0.94000;
	9036	 1	 3.03	 1.0	 0.0	 0.0	 1	    0.97046	  -25.22638	 2.3	 9	    1.06000	    0.94000;
	9037	 1	 1.86	 0.64	 0.1	 0.0	 1	    0.96781	  -25.15227	 0.6	 9	    1.06000	    0.94000;
	9038	 1	 2.58	 0.89	 0.14	 0.0	 1	    0.95020	  -26.94405	 0.6	 9	    1.06000	    0.94000;
	9041	 1	 1.01	 0.35	 0.05	 0.0	 1	    0.97425	  -23.91074	 0.6	 9	    1.06000	    0.94000;
	9042	 1	 0.81	 0.28	 0.04	 0.0	 1	    0.96112	  -25.05055	 0.6	 9	    1.06000	    0.94000;
	9043	 1	 1.6	 0.52	 0.0	 0.0	 1	    0.97537	  -24.00939	 2.3	 9	    1.06000	    0.94000;
	9044	 1	 0.0	 0.0	 0.0	 0.0	 1	    0.98953	  -22.40066	 6.6	 9	    1.06000	    0.94000;
	9051	 2	 35.81	 0.0	 0.0	 0.0	 1	    1.02724	  -21.88008	 13.8	 9	    1.06000	    0.94000;
	9052	 1	 30.0	 23.0	 0.0	 0.0	 1	    0.98988	  -19.85134	 13.8	 9	    1.06000	    0.94000;
	9053	 2	 26.48	 0.0	 0.0	 0.0	 1	    1.01491	  -20.27300	 13.8	 9	    1.06000	    0.94000;
	9054	 2	 0.0	 0.0	 0.0	 0.0	 1	    1.02687	   -6.74822	 13.8	 9	    1.06000	    0.94000;
	9055	 2	 0.0	 0.0	 0.0	 0.0	 1	    1.02536	  -14.04823	 13.8	 9	    1.06000	    0.94000;
	9071	 1	 1.02	 0.35	 0.05	 0.0	 1	    0.98589	  -23.07450	 0.6	 9	    1.06000	    0.94000;
	9072	 1	 1.02	 0.35	 0.05	 0.0	 1	    0.99087	  -22.53182	 0.6	 9	    1.06000	    0.94000;
	9121	 1	 3.8	 1.25	 0.0	 0.0	 1	    0.98935	  -21.91761	 6.6	 9	    1.06000	    0.94000;
	9533	 1	 1.19	 0.41	 0.1	 0.0	 1	    1.05612	  -20.77305	 2.3	 9	    1.06000	    0.94000;
];

%% generator data
%	bus	Pg	Qg	Qmax	Qmin	Vg	mBase	status	Pmax	Pmin	Pc1	Pc2	Qc1min	Qc1max	Qc2min	Qc2max	ramp_agc	ramp_10	ramp_30	ramp_q	apf
mpc.gen = [
	8	 0.0	 10.0	 10.0	 -10.0	 1.02507	 100.0	 1	 0.0	 0.0	 0.0	 0.0	 0.0	 0.0	 0.0	 0.0	 0.0	 0.0	 0.0	 0.0	 0.0;
	10	 0.0	 20.0	 20.0	 -20.0	 1.03484	 100.0	 1	 0.0	 0.0	 0.0	 0.0	 0.0	 0.0	 0.0	 0.0	 0.0	 0.0	 0.0	 0.0	 0.0;
	20	 0.0	 20.0	 20.0	 -20.0	 1.01759	 100.0	 1	 0.0	 0.0	 0.0	 0.0	 0.0	 0.0	 0.0	 0.0	 0.0	 0.0	 0.0	 0.0	 0.0;
	63	 0.0	 25.0	 25.0	 -25.0	 0.98847	 100.0	 1	 0.0	 0.0	 0.0	 0.0	 0.0	 0.0	 0.0	 0.0	 0.0	 0.0	 0.0	 0.0	 0.0;
	76	 0.0	 35.0	 35.0	 12.0	 0.98814	 100.0	 1	 0.0	 0.0	 0.0	 0.0	 0.0	 0.0	 0.0	 0.0	 0.0	 0.0	 0.0	 0.0	 0.0;
	84	 820.772	 236.442	 240.0	 -240.0	 1.06	 100.0	 1	 1448.0	 0.0	 0.0	 0.0	 0.0	 0.0	 0.0	 0.0	 0.0	 0.0	 0.0	 0.0	 0.0;
	91	 8.134	 54.379	 93.0	 -11.0	 1.06	 100.0	 1	 185.0	 0.0	 0.0	 0.0	 0.0	 0.0	 0.0	 0.0	 0.0	 0.0	 0.0	 0.0	 0.0;
	92	 103.628	 25.949	 153.0	 -153.0	 1.06	 100.0	 1	 360.0	 0.0	 0.0	 0.0	 0.0	 0.0	 0.0	 0.0	 0.0	 0.0	 0.0	 0.0	 0.0;
	98	 93.0	 7.452	 47.0	 -30.0	 1.06	 100.0	 1	 93.0	 0.0	 0.0	 0.0	 0.0	 0.0	 0.0	 0.0	 0.0	 0.0	 0.0	 0.0	 0.0;
	108	 197.0	 48.747	 77.0	 -24.0	 1.06	 100.0	 1	 197.0	 0.0	 0.0	 0.0	 0.0	 0.0	 0.0	 0.0	 0.0	 0.0	 0.0	 0.0	 0.0;
	119	 1666.258	 924.498	 1021.0	 -500.0	 1.06	 100.0	 1	 2041.0	 0.0	 0.0	 0.0	 0.0	 0.0	 0.0	 0.0	 0.0	 0.0	 0.0	 0.0	 0.0;
	124	 321.0	 120.0	 120.0	 -60.0	 1.04676	 100.0	 1	 321.0	 0.0	 0.0	 0.0	 0.0	 0.0	 0.0	 0.0	 0.0	 0.0	 0.0	 0.0	 0.0;
	125	 0.0	 200.0	 200.0	 -25.0	 1.02167	 100.0	 1	 0.0	 0.0	 0.0	 0.0	 0.0	 0.0	 0.0	 0.0	 0.0	 0.0	 0.0	 0.0	 0.0;
	138	 0.0	 332.887	 350.0	 -125.0	 1.06	 100.0	 1	 0.0	 0.0	 0.0	 0.0	 0.0	 0.0	 0.0	 0.0	 0.0	 0.0	 0.0	 0.0	 0.0;