%%%%%%%%%%%%%%%%%%%%%%%%%%%%%%%%%%%%%%%%%%%%%%%%%%%%%%%%%%%%%%%%%%%%%%%%%%%
%%%%                                                                  %%%%%
%%%%    IEEE PES Power Grid Library - Optimal Power Flow - v21.07     %%%%%
%%%%          (https://github.com/power-grid-lib/pglib-opf)           %%%%%
%%%%             Benchmark Group - Small Angle Difference             %%%%%
%%%%                         29 - July - 2021                         %%%%%
%%%%                                                                  %%%%%
%%%%%%%%%%%%%%%%%%%%%%%%%%%%%%%%%%%%%%%%%%%%%%%%%%%%%%%%%%%%%%%%%%%%%%%%%%%
function mpc = pglib_opf_case793_goc__sad
mpc.version = '2';
mpc.baseMVA = 100.0;

%% bus data
%	bus_i	type	Pd	Qd	Gs	Bs	area	Vm	Va	baseKV	zone	Vmax	Vmin
mpc.bus = [
	1	 1	 15.786	 6.645	 0.0	 0.0	 1	    0.99500	    0.00000	 115.0	 1	    1.06000	    0.93000;
	2	 1	 25.758	 17.953	 0.0	 15.498	 1	    0.99500	    0.00000	 115.0	 1	    1.06000	    0.93000;
	3	 1	 9.059	 2.568	 0.0	 0.0	 1	    0.99500	    0.00000	 35.0	 1	    1.06000	    0.93000;
	4	 1	 0.0	 0.0	 0.0	 0.0	 1	    0.99500	    0.00000	 115.0	 1	    1.06000	    0.93000;
	5	 1	 0.503	 -1.304	 0.0	 0.0	 1	    0.99500	    0.00000	 13.0	 1	    1.06000	    0.93000;
	6	 1	 0.0	 0.0	 0.0	 0.0	 1	    0.99500	    0.00000	 14.0	 1	    1.06000	    0.93000;
	7	 1	 6.984	 3.995	 0.0	 0.0	 1	    0.99500	    0.00000	 115.0	 1	    1.06000	    0.93000;
	8	 1	 2.177	 0.37	 0.0	 0.0	 1	    0.99500	    0.00000	 13.0	 1	    1.06000	    0.93000;
	9	 1	 13.454	 2.64	 0.0	 0.0	 1	    0.99500	    0.00000	 35.0	 1	    1.06000	    0.93000;
	10	 1	 0.0	 0.0	 0.0	 0.0	 1	    0.99500	    0.00000	 115.0	 1	    1.06000	    0.93000;
	11	 1	 0.0	 0.0	 0.0	 0.0	 1	    0.99500	    0.00000	 115.0	 1	    1.06000	    0.93000;
	12	 1	 10.003	 6.573	 0.0	 0.0	 1	    0.99500	    0.00000	 35.0	 1	    1.06000	    0.93000;
	13	 1	 8.299	 2.28	 0.0	 0.0	 1	    0.99500	    0.00000	 13.0	 1	    1.06000	    0.93000;
	15	 1	 13.341	 3.441	 0.0	 0.0	 1	    0.99500	    0.00000	 35.0	 1	    1.06000	    0.93000;
	16	 1	 0.0	 0.0	 0.0	 0.0	 1	    0.99500	    0.00000	 115.0	 1	    1.06000	    0.93000;
	17	 1	 0.0	 0.0	 0.0	 0.0160397150585	 1	    0.99500	    0.00000	 115.0	 1	    1.06000	    0.93000;
	18	 1	 0.0	 0.0	 0.0	 0.0	 1	    0.99500	    0.00000	 230.0	 1	    1.06000	    0.93000;
	19	 1	 0.0	 0.0	 0.0	 0.0	 1	    0.99500	    0.00000	 230.0	 1	    1.06000	    0.93000;
	20	 1	 13.054	 -4.149	 0.0	 0.0	 1	    0.99500	    0.00000	 13.0	 1	    1.06000	    0.93000;
	21	 1	 8.103	 -1.089	 0.0	 0.0	 1	    0.99500	    0.00000	 115.0	 1	    1.06000	    0.93000;
	22	 1	 0.0	 0.0	 0.0	 0.0	 1	    0.99500	    0.00000	 115.0	 1	    1.06000	    0.93000;
	23	 2	 0.0	 0.0	 0.0	 -120.31	 1	    0.99500	    0.00000	 115.0	 1	    1.06000	    0.93000;
	24	 1	 0.0	 0.0	 0.0	 0.00111992645637	 1	    0.99500	    0.00000	 115.0	 1	    1.06000	    0.93000;
	25	 1	 0.0	 0.0	 0.0	 0.0	 1	    0.99500	    0.00000	 14.0	 1	    1.06000	    0.93000;
	27	 1	 0.0	 0.0	 0.0	 0.0	 1	    0.99500	    0.00000	 115.0	 1	    1.06000	    0.93000;
	28	 1	 24.865	 2.958	 0.0	 -4.2418108228	 1	    0.99500	    0.00000	 35.0	 1	    1.06000	    0.93000;
	30	 1	 0.0	 0.0	 0.0	 0.0	 1	    0.99500	    0.00000	 115.0	 1	    1.06000	    0.93000;
	31	 2	 0.0	 0.0	 0.0	 0.0	 1	    0.99500	    0.00000	 230.0	 1	    1.06000	    0.93000;
	32	 1	 7.159	 1.202	 0.0	 0.0	 1	    0.99500	    0.00000	 115.0	 1	    1.06000	    0.93000;
	33	 1	 0.0	 0.0	 0.0	 0.0	 1	    0.99500	    0.00000	 230.0	 1	    1.06000	    0.93000;
	34	 1	 10.024	 8.237	 0.0	 0.0	 1	    0.99500	    0.00000	 35.0	 1	    1.06000	    0.93000;
	35	 1	 0.0	 0.0	 0.0	 0.0	 1	    0.99500	    0.00000	 230.0	 1	    1.06000	    0.93000;
	36	 1	 108.412	 -4.52	 0.0	 -4.438	 1	    0.99500	    0.00000	 230.0	 1	    1.06000	    0.93000;
	37	 1	 -8.37	 -3.328	 0.0	 0.0	 1	    0.99500	    0.00000	 230.0	 1	    1.06000	    0.93000;
	38	 1	 0.0	 0.0	 0.0	 0.0	 1	    0.99500	    0.00000	 230.0	 1	    1.06000	    0.93000;
	39	 1	 17.809	 7.169	 0.0	 0.0	 1	    0.99500	    0.00000	 35.0	 1	    1.06000	    0.93000;
	40	 1	 0.0	 0.0	 0.0	 0.0	 1	    0.99500	    0.00000	 115.0	 1	    1.06000	    0.93000;
	41	 1	 0.0	 0.0	 0.0	 0.0	 1	    0.99500	    0.00000	 230.0	 1	    1.06000	    0.93000;
	43	 2	 2.054	 0.462	 0.0	 0.0	 1	    0.99500	    0.00000	 115.0	 1	    1.06000	    0.93000;
	44	 1	 9.059	 2.301	 0.0	 0.0	 1	    0.99500	    0.00000	 115.0	 1	    1.06000	    0.93000;
	45	 1	 0.0	 0.0	 0.0	 0.0	 1	    0.99500	    0.00000	 230.0	 1	    1.06000	    0.93000;
	46	 2	 0.0	 0.0	 0.0	 0.0	 1	    0.99500	    0.00000	 230.0	 1	    1.06000	    0.93000;
	47	 2	 10.794	 -1.53	 0.0	 0.0	 1	    0.99500	    0.00000	 115.0	 1	    1.06000	    0.93000;
	49	 1	 10.024	 8.237	 0.0	 0.0	 1	    0.99500	    0.00000	 35.0	 1	    1.06000	    0.93000;
	50	 1	 0.0	 0.0	 0.0	 0.0	 1	    0.99500	    0.00000	 115.0	 1	    1.06000	    0.93000;
	51	 1	 5.135	 3.081	 0.0	 0.0	 1	    0.99500	    0.00000	 13.0	 1	    1.06000	    0.93000;
	52	 2	 0.0	 0.0	 0.0	 0.0	 1	    0.99500	    0.00000	 230.0	 1	    1.06000	    0.93000;
	53	 1	 7.169	 0.555	 0.0	 0.0	 1	    0.99500	    0.00000	 115.0	 1	    1.06000	    0.93000;
	54	 1	 14.656	 -1.109	 0.0	 -5.72431630412	 1	    0.99500	    0.00000	 35.0	 1	    1.06000	    0.93000;
	55	 2	 0.0	 0.0	 0.0	 0.0	 1	    0.99500	    0.00000	 230.0	 1	    1.06000	    0.93000;
	56	 1	 6.429	 5.947	 0.0	 0.0	 1	    0.99500	    0.00000	 35.0	 1	    1.06000	    0.93000;
	57	 1	 7.364	 -0.277	 0.0	 0.0	 1	    0.99500	    0.00000	 115.0	 1	    1.06000	    0.93000;
	58	 1	 10.106	 10.951	 0.0	 34.5917650937	 1	    0.99500	    0.00000	 115.0	 1	    1.06000	    0.93000;
	59	 2	 9.151	 5.402	 0.0	 0.0	 1	    0.99500	    0.00000	 35.0	 1	    1.06000	    0.93000;
	60	 1	 0.0	 0.0	 0.0	 0.0	 1	    0.99500	    0.00000	 115.0	 1	    1.06000	    0.93000;
	61	 1	 3.851	 -0.472	 0.0	 0.0	 1	    0.99500	    0.00000	 13.0	 1	    1.06000	    0.93000;
	62	 1	 8.001	 -0.277	 0.0	 0.0	 1	    0.99500	    0.00000	 115.0	 1	    1.06000	    0.93000;
	63	 1	 30.318	 0.092	 0.0	 0.0	 1	    0.99500	    0.00000	 230.0	 1	    1.06000	    0.93000;
	64	 1	 8.699	 7.713	 0.0	 0.0	 1	    0.99500	    0.00000	 35.0	 1	    1.06000	    0.93000;
	65	 2	 0.935	 0.606	 0.0	 0.0	 1	    0.99500	    0.00000	 14.0	 1	    1.06000	    0.93000;
	66	 1	 0.0	 0.0	 0.0	 0.0	 1	    0.99500	    0.00000	 230.0	 1	    1.06000	    0.93000;
	67	 1	 0.0	 0.0	 0.0	 24.9999281688	 1	    0.99500	    0.00000	 115.0	 1	    1.06000	    0.93000;
	68	 1	 7.22	 -0.267	 0.0	 0.0	 1	    0.99500	    0.00000	 115.0	 1	    1.06000	    0.93000;
	69	 1	 0.0	 0.0	 0.0	 0.0	 1	    0.99500	    0.00000	 230.0	 1	    1.06000	    0.93000;
	70	 1	 5.69	 -3.564	 0.0	 0.0	 1	    0.99500	    0.00000	 35.0	 1	    1.06000	    0.93000;
	71	 2	 11.544	 -3.594	 0.0	 0.0	 1	    0.99500	    0.00000	 115.0	 1	    1.06000	    0.93000;
	72	 1	 5.495	 0.359	 0.0	 0.0	 1	    0.99500	    0.00000	 115.0	 1	    1.06000	    0.93000;
	73	 1	 0.0	 0.0	 0.0	 0.0	 1	    0.99500	    0.00000	 115.0	 1	    1.06000	    0.93000;
	74	 1	 6.82	 4.888	 0.0	 0.00179881396866	 1	    0.99500	    0.00000	 115.0	 1	    1.06000	    0.93000;
	75	 1	 3.061	 -2.485	 0.0	 0.0	 1	    0.99500	    0.00000	 13.0	 1	    1.06000	    0.93000;
	76	 1	 5.484	 -0.277	 0.0	 0.0	 1	    0.99500	    0.00000	 115.0	 1	    1.06000	    0.93000;
	77	 1	 24.064	 0.431	 0.0	 0.0	 1	    0.99500	    0.00000	 35.0	 1	    1.06000	    0.93000;
	78	 1	 14.327	 3.533	 0.0	 0.0	 1	    0.99500	    0.00000	 35.0	 1	    1.06000	    0.93000;
	79	 1	 0.0	 0.0	 0.0	 0.0	 1	    0.99500	    0.00000	 230.0	 1	    1.06000	    0.93000;
	80	 1	 0.924	 0.555	 0.0	 0.0	 1	    0.99500	    0.00000	 14.0	 1	    1.06000	    0.93000;
	81	 1	 30.844	 22.078	 0.0	 21.502	 1	    0.99500	    0.00000	 115.0	 1	    1.06000	    0.93000;
	82	 1	 7.169	 0.555	 0.0	 0.0	 1	    0.99500	    0.00000	 115.0	 1	    1.06000	    0.93000;
	83	 1	 0.0	 0.0	 0.0	 0.0	 1	    0.99500	    0.00000	 115.0	 1	    1.06000	    0.93000;
	84	 1	 8.894	 0.565	 0.0	 0.0	 1	    0.99500	    0.00000	 115.0	 1	    1.06000	    0.93000;
	85	 1	 14.04	 3.934	 0.0	 0.0	 1	    0.99500	    0.00000	 115.0	 1	    1.06000	    0.93000;
	86	 2	 0.0	 0.0	 0.0	 0.0	 1	    0.99500	    0.00000	 230.0	 1	    1.06000	    0.93000;
	87	 1	 0.0	 0.0	 0.0	 0.0	 1	    0.99500	    0.00000	 230.0	 1	    1.06000	    0.93000;
	88	 1	 -0.267	 0.01	 0.0	 -1.541560956	 1	    0.99500	    0.00000	 35.0	 1	    1.06000	    0.93000;
	89	 1	 20.079	 0.021	 0.0	 0.0	 1	    0.99500	    0.00000	 35.0	 1	    1.06000	    0.93000;
	90	 2	 0.0	 0.0	 0.0	 0.0	 1	    0.99500	    0.00000	 230.0	 1	    1.06000	    0.93000;
	91	 1	 0.0	 0.0	 0.0	 0.0	 1	    0.99500	    0.00000	 115.0	 1	    1.06000	    0.93000;
	92	 1	 4.653	 -0.277	 0.0	 0.0	 1	    0.99500	    0.00000	 115.0	 1	    1.06000	    0.93000;
	93	 2	 0.0	 0.0	 0.0	 0.0	 1	    0.99500	    0.00000	 115.0	 1	    1.06000	    0.93000;
	94	 1	 2.229	 2.578	 0.0	 11.8045729003	 1	    0.99500	    0.00000	 115.0	 1	    1.06000	    0.93000;
	95	 1	 0.0	 0.0	 0.0	 0.0	 1	    0.99500	    0.00000	 345.0	 2	    1.06000	    0.93000;
	96	 1	 22.758	 40.419	 0.0	 0.0	 1	    0.99500	    0.00000	 345.0	 2	    1.06000	    0.93000;
	97	 1	 19.34	 25.99	 0.0	 0.0	 1	    0.99500	    0.00000	 345.0	 2	    1.06000	    0.93000;
	98	 1	 0.0	 0.0	 0.0	 -24.285	 1	    0.99500	    0.00000	 345.0	 2	    1.06000	    0.93000;
	99	 1	 7.189	 18.487	 0.0	 0.0	 1	    0.99500	    0.00000	 345.0	 2	    1.06000	    0.93000;
	100	 1	 8.216	 21.568	 0.0	 4.571	 1	    0.99500	    0.00000	 345.0	 2	    1.06000	    0.93000;
	101	 1	 105.543	 20.117	 0.0	 0.0	 1	    0.99500	    0.00000	 345.0	 2	    1.06000	    0.93000;
	102	 1	 1.156	 -45.892	 0.0	 -43.607	 1	    0.99500	    0.00000	 345.0	 2	    1.06000	    0.93000;
	103	 1	 0.0	 0.0	 0.0	 0.0	 1	    0.99500	    0.00000	 138.0	 2	    1.06000	    0.93000;
	104	 1	 0.0	 0.0	 0.0	 0.0	 1	    0.99500	    0.00000	 138.0	 2	    1.06000	    0.93000;
	105	 2	 4.396	 1.623	 0.0	 0.0	 1	    0.99500	    0.00000	 138.0	 2	    1.06000	    0.93000;
	106	 1	 5.628	 2.362	 0.0	 0.0	 1	    0.99500	    0.00000	 138.0	 2	    1.06000	    0.93000;
	107	 1	 0.0	 0.0	 0.0	 0.0	 1	    0.99500	    0.00000	 138.0	 2	    1.06000	    0.93000;
	108	 1	 10.028	 -13.958	 0.0	 0.0	 1	    0.99500	    0.00000	 138.0	 2	    1.06000	    0.93000;
	109	 1	 8.453	 2.218	 0.0	 0.0	 1	    0.99500	    0.00000	 138.0	 2	    1.06000	    0.93000;
	110	 1	 1.921	 0.822	 0.0	 0.0	 1	    0.99500	    0.00000	 138.0	 2	    1.06000	    0.93000;
	111	 1	 3.43	 1.458	 0.0	 0.0	 1	    0.99500	    0.00000	 138.0	 2	    1.06000	    0.93000;
	112	 1	 13.886	 5.166	 0.0	 0.0	 1	    0.99500	    0.00000	 138.0	 2	    1.06000	    0.93000;
	113	 1	 0.0	 0.0	 0.0	 0.0	 1	    0.99500	    0.00000	 138.0	 2	    1.06000	    0.93000;
	114	 1	 0.0	 0.0	 0.0	 0.0	 1	    0.99500	    0.00000	 138.0	 2	    1.06000	    0.93000;
	115	 1	 4.94	 1.777	 0.0	 0.0	 1	    0.99500	    0.00000	 138.0	 2	    1.06000	    0.93000;
	116	 1	 24.249	 21.671	 0.0	 0.0	 1	    0.99500	    0.00000	 138.0	 2	    1.06000	    0.93000;
	117	 1	 0.0	 0.0	 0.0	 0.0	 1	    0.99500	    0.00000	 138.0	 2	    1.06000	    0.93000;
	118	 1	 5.608	 2.372	 0.0	 0.0	 1	    0.99500	    0.00000	 138.0	 2	    1.06000	    0.93000;
	119	 1	 0.0	 0.0	 0.0	 0.0	 1	    0.99500	    0.00000	 138.0	 2	    1.06000	    0.93000;
	120	 1	 9.88	 3.225	 0.0	 0.0	 1	    0.99500	    0.00000	 138.0	 2	    1.06000	    0.93000;
	121	 1	 0.0	 0.0	 0.0	 0.0	 1	    0.99500	    0.00000	 138.0	 2	    1.06000	    0.93000;
	122	 1	 0.0	 0.0	 0.0	 0.0	 1	    0.99500	    0.00000	 138.0	 2	    1.06000	    0.93000;
	123	 1	 0.0	 0.0	 0.0	 0.0	 1	    0.99500	    0.00000	 138.0	 2	    1.06000	    0.93000;
	124	 1	 0.0	 0.0	 0.0	 0.0	 1	    0.99500	    0.00000	 138.0	 2	    1.06000	    0.93000;
	125	 1	 0.0	 0.0	 0.0	 0.0	 1	    0.99500	    0.00000	 138.0	 2	    1.06000	    0.93000;
	126	 1	 0.0	 0.0	 0.0	 0.0	 1	    0.99500	    0.00000	 138.0	 2	    1.06000	    0.93000;
	127	 1	 0.0	 0.0	 0.0	 0.0	 1	    0.99500	    0.00000	 138.0	 2	    1.06000	    0.93000;
	128	 1	 1.027	 0.39	 0.0	 0.0	 1	    0.99500	    0.00000	 138.0	 2	    1.06000	    0.93000;
	129	 1	 4.611	 3.194	 0.0	 0.0	 1	    0.99500	    0.00000	 138.0	 2	    1.06000	    0.93000;
	130	 1	 0.0	 0.0	 0.0	 0.0	 1	    0.99500	    0.00000	 138.0	 2	    1.06000	    0.93000;
	131	 1	 82.164	 40.055	 0.0	 0.0	 1	    0.99500	    0.00000	 138.0	 2	    1.06000	    0.93000;
	132	 1	 5.371	 1.859	 0.0	 0.0	 1	    0.99500	    0.00000	 138.0	 2	    1.06000	    0.93000;
	133	 1	 1.972	 0.616	 0.0	 -1.321	 1	    0.99500	    0.00000	 138.0	 2	    1.06000	    0.93000;
	134	 2	 54.434	 25.697	 0.0	 0.0	 1	    0.99500	    0.00000	 138.0	 2	    1.06000	    0.93000;
	135	 1	 6.162	 2.188	 0.0	 0.0	 1	    0.99500	    0.00000	 138.0	 2	    1.06000	    0.93000;
	136	 1	 2.855	 0.924	 0.0	 0.0	 1	    0.99500	    0.00000	 138.0	 2	    1.06000	    0.93000;
	137	 1	 39.039	 -9.159	 0.0	 -13.204	 1	    0.99500	    0.00000	 138.0	 2	    1.06000	    0.93000;
	138	 1	 0.442	 0.103	 0.0	 0.0	 1	    0.99500	    0.00000	 138.0	 2	    1.06000	    0.93000;
	139	 1	 0.0	 0.0	 0.0	 0.0	 1	    0.99500	    0.00000	 138.0	 2	    1.06000	    0.93000;
	140	 1	 2.855	 1.705	 0.0	 0.0	 1	    0.99500	    0.00000	 138.0	 2	    1.06000	    0.93000;
	141	 1	 5.988	 0.688	 0.0	 0.0	 1	    0.99500	    0.00000	 138.0	 2	    1.06000	    0.93000;
	142	 1	 8.34	 2.835	 0.0	 0.0	 1	    0.99500	    0.00000	 138.0	 2	    1.06000	    0.93000;
	143	 1	 0.426	 1.249	 0.0	 1.197	 1	    0.99500	    0.00000	 138.0	 2	    1.06000	    0.93000;
	144	 1	 0.0	 0.0	 0.0	 0.0	 1	    0.99500	    0.00000	 138.0	 2	    1.06000	    0.93000;
	145	 1	 53.244	 16.969	 0.0	 16.36	 1	    0.99500	    0.00000	 138.0	 2	    1.06000	    0.93000;
	146	 1	 1.643	 0.411	 0.0	 0.0	 1	    0.99500	    0.00000	 138.0	 2	    1.06000	    0.93000;
	147	 1	 1.099	 0.503	 0.0	 0.0	 1	    0.99500	    0.00000	 138.0	 2	    1.06000	    0.93000;
	148	 1	 6.707	 2.865	 0.0	 0.0	 1	    0.99500	    0.00000	 138.0	 2	    1.06000	    0.93000;
	149	 1	 9.227	 -8.412	 0.0	 -8.091	 1	    0.99500	    0.00000	 138.0	 2	    1.06000	    0.93000;
	150	 1	 4.94	 1.551	 0.0	 0.0	 1	    0.99500	    0.00000	 138.0	 2	    1.06000	    0.93000;
	151	 2	 19.421	 31.027	 0.0	 0.0	 1	    0.99500	    0.00000	 138.0	 2	    1.06000	    0.93000;
	152	 2	 7.189	 14.379	 0.0	 0.0	 1	    0.99500	    0.00000	 138.0	 2	    1.06000	    0.93000;
	153	 1	 9.336	 3.143	 0.0	 0.0	 1	    0.99500	    0.00000	 138.0	 2	    1.06000	    0.93000;
	154	 1	 0.0	 0.0	 0.0	 0.0	 1	    0.99500	    0.00000	 138.0	 2	    1.06000	    0.93000;
	155	 1	 0.0	 0.0	 0.0	 0.0	 1	    0.99500	    0.00000	 138.0	 2	    1.06000	    0.93000;
	156	 1	 0.0	 0.0	 0.0	 40.892	 1	    0.99500	    0.00000	 138.0	 2	    1.06000	    0.93000;
	157	 1	 3.02	 1.284	 0.0	 0.0	 1	    0.99500	    0.00000	 138.0	 2	    1.06000	    0.93000;
	158	 1	 0.0	 0.0	 0.0	 0.0	 1	    0.99500	    0.00000	 138.0	 2	    1.06000	    0.93000;
	159	 2	 14.944	 0.565	 0.0	 0.0	 1	    0.99500	    0.00000	 138.0	 2	    1.06000	    0.93000;
	160	 1	 11.534	 2.732	 0.0	 0.0	 1	    0.99500	    0.00000	 138.0	 2	    1.06000	    0.93000;
	161	 1	 6.553	 2.845	 0.0	 0.0	 1	    0.99500	    0.00000	 138.0	 2	    1.06000	    0.93000;
	162	 1	 8.535	 3.78	 0.0	 0.0	 1	    0.99500	    0.00000	 138.0	 2	    1.06000	    0.93000;
	163	 1	 0.873	 0.082	 0.0	 0.0	 1	    0.99500	    0.00000	 138.0	 2	    1.06000	    0.93000;
	164	 1	 0.0	 0.0	 0.0	 0.0	 1	    0.99500	    0.00000	 138.0	 2	    1.06000	    0.93000;
	165	 1	 0.678	 0.401	 0.0	 0.0	 1	    0.99500	    0.00000	 138.0	 2	    1.06000	    0.93000;
	166	 1	 0.544	 0.318	 0.0	 0.0	 1	    0.99500	    0.00000	 138.0	 2	    1.06000	    0.93000;
	167	 1	 0.0	 0.0	 0.0	 0.0	 1	    0.99500	    0.00000	 138.0	 2	    1.06000	    0.93000;
	168	 1	 10.65	 3.554	 0.0	 0.0	 1	    0.99500	    0.00000	 138.0	 2	    1.06000	    0.93000;
	169	 1	 2.64	 0.955	 0.0	 0.0	 1	    0.99500	    0.00000	 138.0	 2	    1.06000	    0.93000;
	170	 1	 0.0	 0.0	 0.0	 0.0	 1	    0.99500	    0.00000	 138.0	 2	    1.06000	    0.93000;
	171	 1	 5.495	 0.781	 0.0	 0.0	 1	    0.99500	    0.00000	 138.0	 2	    1.06000	    0.93000;
	172	 1	 0.0	 0.0	 0.0	 0.0	 1	    0.99500	    0.00000	 138.0	 2	    1.06000	    0.93000;
	173	 1	 7.456	 2.783	 0.0	 0.0	 1	    0.99500	    0.00000	 138.0	 2	    1.06000	    0.93000;
	174	 1	 0.0	 0.0	 0.0	 0.0	 1	    0.99500	    0.00000	 138.0	 2	    1.06000	    0.93000;
	175	 1	 3.071	 1.171	 0.0	 0.0	 1	    0.99500	    0.00000	 138.0	 2	    1.06000	    0.93000;
	176	 1	 6.594	 2.342	 0.0	 0.0	 1	    0.99500	    0.00000	 138.0	 2	    1.06000	    0.93000;
	177	 1	 0.0	 0.0	 0.0	 0.0	 1	    0.99500	    0.00000	 138.0	 2	    1.06000	    0.93000;
	178	 1	 0.0	 0.0	 0.0	 0.0	 1	    0.99500	    0.00000	 138.0	 2	    1.06000	    0.93000;
	179	 2	 6.152	 2.116	 0.0	 0.0	 1	    0.99500	    0.00000	 138.0	 2	    1.06000	    0.93000;
	180	 1	 0.0	 0.0	 0.0	 0.0	 1	    0.99500	    0.00000	 138.0	 2	    1.06000	    0.93000;
	181	 1	 4.663	 1.941	 0.0	 0.0	 1	    0.99500	    0.00000	 138.0	 2	    1.06000	    0.93000;
	182	 1	 4.396	 1.838	 0.0	 0.0	 1	    0.99500	    0.00000	 138.0	 2	    1.06000	    0.93000;
	183	 1	 0.0	 0.0	 0.0	 0.0	 1	    0.99500	    0.00000	 138.0	 2	    1.06000	    0.93000;
	184	 1	 3.738	 1.263	 0.0	 0.0	 1	    0.99500	    0.00000	 138.0	 2	    1.06000	    0.93000;
	185	 1	 4.385	 1.592	 0.0	 0.0	 1	    0.99500	    0.00000	 138.0	 2	    1.06000	    0.93000;
	186	 1	 0.0	 0.0	 0.0	 0.0	 1	    0.99500	    0.00000	 138.0	 2	    1.06000	    0.93000;
	187	 1	 0.0	 0.0	 0.0	 0.0	 1	    0.99500	    0.00000	 138.0	 2	    1.06000	    0.93000;
	188	 1	 0.77	 0.38	 0.0	 0.0	 1	    0.99500	    0.00000	 138.0	 2	    1.06000	    0.93000;
	189	 1	 1.315	 0.596	 0.0	 0.0	 1	    0.99500	    0.00000	 138.0	 2	    1.06000	    0.93000;
	190	 2	 0.0	 0.0	 0.0	 0.0	 1	    0.99500	    0.00000	 138.0	 2	    1.06000	    0.93000;
	191	 1	 4.724	 1.777	 0.0	 0.0	 1	    0.99500	    0.00000	 138.0	 2	    1.06000	    0.93000;
	192	 1	 0.0	 0.0	 0.0	 0.0	 1	    0.99500	    0.00000	 138.0	 2	    1.06000	    0.93000;
	193	 1	 4.724	 1.674	 0.0	 0.0	 1	    0.99500	    0.00000	 138.0	 2	    1.06000	    0.93000;
	194	 1	 12.52	 4.067	 0.0	 0.0	 1	    0.99500	    0.00000	 138.0	 2	    1.06000	    0.93000;
	195	 1	 18.155	 5.789	 0.0	 5.562	 1	    0.99500	    0.00000	 138.0	 2	    1.06000	    0.93000;
	196	 1	 0.0	 0.0	 0.0	 0.0	 1	    0.99500	    0.00000	 138.0	 2	    1.06000	    0.93000;
	197	 1	 0.0	 0.0	 0.0	 0.0	 1	    0.99500	    0.00000	 138.0	 2	    1.06000	    0.93000;
	198	 1	 3.954	 1.417	 0.0	 0.0	 1	    0.99500	    0.00000	 138.0	 2	    1.06000	    0.93000;
	199	 1	 0.0	 0.0	 0.0	 0.0	 1	    0.99500	    0.00000	 138.0	 2	    1.06000	    0.93000;
	200	 1	 5.454	 1.52	 0.0	 0.0	 1	    0.99500	    0.00000	 138.0	 2	    1.06000	    0.93000;
	201	 1	 7.621	 2.064	 0.0	 0.0	 1	    0.99500	    0.00000	 138.0	 2	    1.06000	    0.93000;
	202	 1	 2.208	 0.575	 0.0	 0.0	 1	    0.99500	    0.00000	 138.0	 2	    1.06000	    0.93000;
	203	 1	 0.0	 0.0	 0.0	 0.0	 1	    0.99500	    0.00000	 138.0	 2	    1.06000	    0.93000;
	204	 1	 12.14	 4.786	 0.0	 0.0	 1	    0.99500	    0.00000	 138.0	 2	    1.06000	    0.93000;
	205	 1	 11.513	 4.971	 0.0	 0.0	 1	    0.99500	    0.00000	 138.0	 2	    1.06000	    0.93000;
	206	 1	 4.242	 1.746	 0.0	 0.0	 1	    0.99500	    0.00000	 138.0	 2	    1.06000	    0.93000;
	207	 1	 2.64	 1.068	 0.0	 0.0	 1	    0.99500	    0.00000	 138.0	 2	    1.06000	    0.93000;
	208	 1	 35.298	 -1.734	 0.0	 0.0	 1	    0.99500	    0.00000	 138.0	 2	    1.06000	    0.93000;
	209	 1	 0.544	 0.308	 0.0	 0.0	 1	    0.99500	    0.00000	 138.0	 2	    1.06000	    0.93000;
	210	 1	 0.0	 0.0	 0.0	 0.0	 1	    0.99500	    0.00000	 138.0	 2	    1.06000	    0.93000;
	211	 1	 0.0	 0.0	 0.0	 0.0	 1	    0.99500	    0.00000	 138.0	 2	    1.06000	    0.93000;
	212	 1	 0.0	 0.0	 0.0	 0.0	 1	    0.99500	    0.00000	 345.0	 3	    1.06000	    0.93000;
	213	 1	 49.057	 17.073	 0.0	 0.0	 1	    0.99500	    0.00000	 345.0	 3	    1.06000	    0.93000;
	214	 1	 280.42	 22.766	 0.0	 0.0	 1	    0.99500	    0.00000	 345.0	 3	    1.06000	    0.93000;
	215	 1	 0.0	 0.0	 0.0	 0.0	 1	    0.99500	    0.00000	 345.0	 3	    1.06000	    0.93000;
	216	 1	 79.49	 46.269	 0.0	 0.0	 1	    0.99500	    0.00000	 345.0	 3	    1.06000	    0.93000;
	217	 1	 0.0	 0.0	 0.0	 0.0	 1	    0.99500	    0.00000	 345.0	 3	    1.06000	    0.93000;
	218	 1	 0.0	 0.0	 0.0	 0.0	 1	    0.99500	    0.00000	 345.0	 3	    1.06000	    0.93000;
	219	 1	 0.0	 0.0	 0.0	 0.0	 1	    0.99500	    0.00000	 345.0	 3	    1.06000	    0.93000;
	220	 1	 659.876	 -1.015	 0.0	 -1.094	 1	    0.99500	    0.00000	 500.0	 3	    1.06000	    0.93000;
	221	 1	 33.03	 53.478	 0.0	 0.0	 1	    0.99500	    0.00000	 345.0	 3	    1.06000	    0.93000;
	222	 2	 47.614	 94.56	 0.0	 0.0	 1	    0.99500	    0.00000	 345.0	 3	    1.06000	    0.93000;
	223	 3	 61.623	 123.246	 0.0	 0.0	 1	    0.99500	    0.00000	 500.0	 3	    1.06000	    0.93000;
	224	 2	 1093.376	 292.448	 0.0	 0.0	 1	    0.99500	    0.00000	 500.0	 3	    1.06000	    0.93000;
	225	 1	 384.16	 86.874	 0.0	 0.0	 1	    0.99500	    0.00000	 500.0	 3	    1.06000	    0.93000;
	226	 1	 73.234	 60.344	 0.0	 0.0	 1	    0.99500	    0.00000	 345.0	 3	    1.06000	    0.93000;
	227	 1	 69.903	 -55.812	 0.0	 0.0	 1	    0.99500	    0.00000	 345.0	 3	    1.06000	    0.93000;
	228	 1	 39.849	 -2.773	 0.0	 0.0	 1	    0.99500	    0.00000	 345.0	 3	    1.06000	    0.93000;
	229	 1	 14.425	 26.227	 0.0	 0.0	 1	    0.99500	    0.00000	 345.0	 3	    1.06000	    0.93000;
	230	 1	 0.0	 0.0	 0.0	 0.0	 1	    0.99500	    0.00000	 345.0	 3	    1.06000	    0.93000;
	231	 1	 154.151	 57.107	 0.0	 0.0	 1	    0.99500	    0.00000	 345.0	 3	    1.06000	    0.93000;
	232	 1	 0.0	 0.0	 0.0	 0.0	 1	    0.99500	    0.00000	 500.0	 3	    1.06000	    0.93000;
	233	 2	 0.0	 0.0	 0.0	 0.0	 1	    0.99500	    0.00000	 500.0	 3	    1.06000	    0.93000;
	234	 1	 7.635	 39.439	 0.0	 0.0	 1	    0.99500	    0.00000	 345.0	 3	    1.06000	    0.93000;
	235	 1	 50.866	 41.501	 0.0	 0.0	 1	    0.99500	    0.00000	 500.0	 3	    1.06000	    0.93000;
	236	 2	 327.101	 7.402	 0.0	 0.0	 1	    0.99500	    0.00000	 345.0	 3	    1.06000	    0.93000;
	237	 1	 3.954	 1.027	 0.0	 0.0	 1	    0.99500	    0.00000	 138.0	 3	    1.06000	    0.93000;
	238	 1	 2.331	 1.14	 0.0	 0.0	 1	    0.99500	    0.00000	 138.0	 3	    1.06000	    0.93000;
	239	 1	 1.623	 0.411	 0.0	 0.0	 1	    0.99500	    0.00000	 138.0	 3	    1.06000	    0.93000;
	240	 1	 4.56	 1.13	 0.0	 0.0	 1	    0.99500	    0.00000	 138.0	 3	    1.06000	    0.93000;
	241	 1	 8.423	 0.125	 0.0	 0.0	 1	    0.99500	    0.00000	 138.0	 3	    1.06000	    0.93000;
	242	 1	 14.266	 7.97	 0.0	 0.0	 1	    0.99500	    0.00000	 138.0	 3	    1.06000	    0.93000;
	243	 1	 20.048	 11.534	 0.0	 0.0	 1	    0.99500	    0.00000	 138.0	 3	    1.06000	    0.93000;
	244	 1	 0.0	 0.0	 0.0	 0.0	 1	    0.99500	    0.00000	 138.0	 3	    1.06000	    0.93000;
	245	 1	 82.136	 9.435	 0.0	 0.0	 1	    0.99500	    0.00000	 138.0	 3	    1.06000	    0.93000;
	246	 2	 20.541	 41.082	 0.0	 0.0	 1	    0.99500	    0.00000	 24.0	 3	    1.06000	    0.93000;
	247	 1	 20.983	 21.178	 0.0	 0.0	 1	    0.99500	    0.00000	 138.0	 3	    1.06000	    0.93000;
	248	 1	 37.487	 12.335	 0.0	 0.0	 1	    0.99500	    0.00000	 138.0	 3	    1.06000	    0.93000;
	249	 1	 85.322	 11.126	 0.0	 0.0	 1	    0.99500	    0.00000	 138.0	 3	    1.06000	    0.93000;
	250	 1	 0.154	 0.688	 0.0	 0.0	 1	    0.99500	    0.00000	 138.0	 3	    1.06000	    0.93000;
	251	 1	 19.021	 12.581	 0.0	 0.0	 1	    0.99500	    0.00000	 138.0	 3	    1.06000	    0.93000;
	252	 1	 14.471	 6.296	 0.0	 0.0	 1	    0.99500	    0.00000	 138.0	 3	    1.06000	    0.93000;
	253	 1	 17.039	 -4.338	 0.0	 0.0	 1	    0.99500	    0.00000	 138.0	 3	    1.06000	    0.93000;
	254	 1	 72.177	 21.044	 0.0	 0.0	 1	    0.99500	    0.00000	 138.0	 3	    1.06000	    0.93000;
	255	 1	 0.0	 0.0	 0.0	 0.0	 1	    0.99500	    0.00000	 138.0	 3	    1.06000	    0.93000;
	256	 2	 5.772	 1.232	 0.0	 0.0	 1	    0.99500	    0.00000	 138.0	 3	    1.06000	    0.93000;
	257	 1	 28.687	 16.008	 0.0	 0.0	 1	    0.99500	    0.00000	 138.0	 3	    1.06000	    0.93000;
	258	 1	 3.646	 0.308	 0.0	 0.0	 1	    0.99500	    0.00000	 138.0	 3	    1.06000	    0.93000;
	259	 1	 2.434	 0.616	 0.0	 0.0	 1	    0.99500	    0.00000	 138.0	 3	    1.06000	    0.93000;
	260	 1	 3.646	 0.616	 0.0	 0.0	 1	    0.99500	    0.00000	 138.0	 3	    1.06000	    0.93000;
	261	 1	 2.126	 0.411	 0.0	 0.0	 1	    0.99500	    0.00000	 138.0	 3	    1.06000	    0.93000;
	262	 1	 2.634	 -8.716	 0.0	 0.0	 1	    0.99500	    0.00000	 138.0	 3	    1.06000	    0.93000;
	263	 1	 1.212	 0.308	 0.0	 0.0	 1	    0.99500	    0.00000	 138.0	 3	    1.06000	    0.93000;
	264	 1	 0.411	 0.103	 0.0	 0.0	 1	    0.99500	    0.00000	 138.0	 3	    1.06000	    0.93000;
	265	 1	 0.0	 0.0	 0.0	 0.0	 1	    0.99500	    0.00000	 345.0	 4	    1.06000	    0.93000;
	266	 1	 3.05	 3.389	 0.0	 0.0	 1	    0.99500	    0.00000	 138.0	 4	    1.06000	    0.93000;
	267	 2	 15.087	 7.179	 0.0	 4.51851848771	 1	    0.99500	    0.00000	 69.0	 4	    1.06000	    0.93000;
	268	 2	 0.0	 0.0	 0.0	 -28.7013868158	 1	    0.99500	    0.00000	 765.0	 4	    1.06000	    0.93000;
	269	 1	 -8.812	 1.561	 0.0	 0.0	 1	    0.99500	    0.00000	 138.0	 4	    1.06000	    0.93000;
	270	 1	 6.563	 3.102	 0.0	 0.0	 1	    0.99500	    0.00000	 46.0	 4	    1.06000	    0.93000;
	271	 1	 0.0	 0.0	 0.0	 -1.93571405737	 1	    0.99500	    0.00000	 69.0	 4	    1.06000	    0.93000;
	272	 2	 31.5	 5.967	 0.0	 0.0	 1	    0.99500	    0.00000	 138.0	 4	    1.06000	    0.93000;
	273	 1	 3.862	 2.835	 0.0	 0.0	 1	    0.99500	    0.00000	 46.0	 4	    1.06000	    0.93000;
	274	 1	 15.95	 4.283	 0.0	 0.0	 1	    0.99500	    0.00000	 46.0	 4	    1.06000	    0.93000;
	275	 2	 0.0	 0.0	 0.0	 25.9538764431	 1	    0.99500	    0.00000	 138.0	 4	    1.06000	    0.93000;
	276	 1	 0.0	 0.0	 0.0	 0.0	 1	    0.99500	    0.00000	 69.0	 4	    1.06000	    0.93000;
	277	 1	 165.819	 81.171	 0.0	 0.0	 1	    0.99500	    0.00000	 345.0	 4	    1.06000	    0.93000;
	278	 1	 0.0	 0.0	 0.0	 17.9999055877	 1	    0.99500	    0.00000	 69.0	 4	    1.06000	    0.93000;
	279	 1	 7.59	 3.163	 0.0	 0.0	 1	    0.99500	    0.00000	 69.0	 4	    1.06000	    0.93000;
	280	 1	 0.0	 0.0	 0.0	 0.0	 1	    0.99500	    0.00000	 138.0	 4	    1.06000	    0.93000;
	281	 2	 2.095	 3.102	 0.0	 0.0	 1	    0.99500	    0.00000	 46.0	 4	    1.06000	    0.93000;
	282	 1	 0.0	 0.0	 0.0	 0.0	 1	    0.99500	    0.00000	 69.0	 4	    1.06000	    0.93000;
	283	 1	 0.0	 0.0	 0.0	 0.0	 1	    0.99500	    0.00000	 138.0	 4	    1.06000	    0.93000;
	284	 1	 12.93	 7.665	 0.0	 0.0	 1	    0.99500	    0.00000	 69.0	 4	    1.06000	    0.93000;
	285	 1	 2.208	 2.044	 0.0	 17.9999589145	 1	    0.99500	    0.00000	 46.0	 4	    1.06000	    0.93000;
	286	 1	 1.458	 2.907	 0.0	 0.0	 1	    0.99500	    0.00000	 69.0	 4	    1.06000	    0.93000;
	287	 1	 1.397	 2.722	 0.0	 0.0	 1	    0.99500	    0.00000	 46.0	 4	    1.06000	    0.93000;
	288	 1	 0.0	 0.0	 0.0	 0.0	 1	    0.99500	    0.00000	 69.0	 4	    1.06000	    0.93000;
	289	 1	 8.369	 0.462	 0.0	 0.0	 1	    0.99500	    0.00000	 69.0	 4	    1.06000	    0.93000;
	290	 1	 2.855	 2.835	 0.0	 0.0	 1	    0.99500	    0.00000	 46.0	 4	    1.06000	    0.93000;
	291	 1	 1.294	 2.27	 0.0	 0.0	 1	    0.99500	    0.00000	 138.0	 4	    1.06000	    0.93000;
	292	 1	 19.452	 2.527	 0.0	 0.0	 1	    0.99500	    0.00000	 138.0	 4	    1.06000	    0.93000;
	293	 1	 0.0	 0.0	 0.0	 0.0	 1	    0.99500	    0.00000	 18.0	 4	    1.06000	    0.93000;
	294	 1	 27.596	 11.586	 0.0	 0.0	 1	    0.99500	    0.00000	 138.0	 4	    1.06000	    0.93000;
	295	 1	 0.0	 0.0	 0.0	 0.0	 1	    0.99500	    0.00000	 138.0	 4	    1.06000	    0.93000;
	296	 1	 0.0	 0.0	 0.0	 0.0	 1	    0.99500	    0.00000	 18.0	 4	    1.06000	    0.93000;
	297	 1	 0.0	 0.0	 0.0	 0.0	 1	    0.99500	    0.00000	 1.0	 4	    1.06000	    0.93000;
	298	 2	 10.794	 3.759	 0.0	 0.0	 1	    0.99500	    0.00000	 46.0	 4	    1.06000	    0.93000;
	299	 1	 0.0	 0.0	 0.0	 5.25176666127	 1	    0.99500	    0.00000	 46.0	 4	    1.06000	    0.93000;
	300	 1	 0.0	 0.0	 0.0	 26.3057695938	 1	    0.99500	    0.00000	 138.0	 4	    1.06000	    0.93000;
	301	 1	 5.838	 7.097	 0.0	 0.0	 1	    0.99500	    0.00000	 46.0	 4	    1.06000	    0.93000;
	302	 1	 4.848	 3.379	 0.0	 0.0	 1	    0.99500	    0.00000	 46.0	 4	    1.06000	    0.93000;
	303	 2	 23.161	 6.482	 0.0	 0.0	 1	    0.99500	    0.00000	 69.0	 4	    1.06000	    0.93000;
	304	 1	 19.329	 2.876	 0.0	 2.218	 1	    0.99500	    0.00000	 138.0	 4	    1.06000	    0.93000;
	305	 1	 0.0	 0.0	 0.0	 0.0	 1	    0.99500	    0.00000	 18.0	 4	    1.06000	    0.93000;
	306	 1	 94.268	 -10.243	 0.0	 0.0	 1	    0.99500	    0.00000	 138.0	 4	    1.06000	    0.93000;
	307	 2	 16.042	 11.246	 0.0	 0.0	 1	    0.99500	    0.00000	 69.0	 4	    1.06000	    0.93000;
	308	 1	 107.787	 -29.102	 0.0	 0.0	 1	    0.99500	    0.00000	 138.0	 4	    1.06000	    0.93000;
	309	 1	 0.0	 0.0	 0.0	 0.0	 1	    0.99500	    0.00000	 22.0	 4	    1.06000	    0.93000;
	310	 1	 6.111	 2.701	 0.0	 1.81258762688	 1	    0.99500	    0.00000	 69.0	 4	    1.06000	    0.93000;
	311	 1	 7.456	 2.403	 0.0	 0.0	 1	    0.99500	    0.00000	 69.0	 4	    1.06000	    0.93000;
	312	 1	 22.656	 14.768	 0.0	 17.9997272614	 1	    0.99500	    0.00000	 69.0	 4	    1.06000	    0.93000;
	313	 1	 40.868	 10.919	 0.0	 0.0	 1	    0.99500	    0.00000	 138.0	 4	    1.06000	    0.93000;
	314	 1	 0.0	 0.0	 0.0	 0.0	 1	    0.99500	    0.00000	 1.0	 4	    1.06000	    0.93000;
	315	 1	 0.0	 0.0	 0.0	 26.9998870416	 1	    0.99500	    0.00000	 69.0	 4	    1.06000	    0.93000;
	316	 1	 0.0	 0.0	 0.0	 0.0	 1	    0.99500	    0.00000	 161.0	 4	    1.06000	    0.93000;
	317	 1	 8.679	 4.077	 0.0	 0.0	 1	    0.99500	    0.00000	 138.0	 4	    1.06000	    0.93000;
	318	 1	 7.764	 2.804	 0.0	 0.0	 1	    0.99500	    0.00000	 138.0	 4	    1.06000	    0.93000;