%%%%%%%%%%%%%%%%%%%%%%%%%%%%%%%%%%%%%%%%%%%%%%%%%%%%%%%%%%%%%%%%%%%%%%%%%%%
%%%%                                                                  %%%%%
%%%%    IEEE PES Power Grid Library - Optimal Power Flow - v23.07     %%%%%
%%%%          (https://github.com/power-grid-lib/pglib-opf)           %%%%%
%%%%             Benchmark Group - Small Angle Difference             %%%%%
%%%%                         23 - July - 2023                         %%%%%
%%%%                                                                  %%%%%
%%%%%%%%%%%%%%%%%%%%%%%%%%%%%%%%%%%%%%%%%%%%%%%%%%%%%%%%%%%%%%%%%%%%%%%%%%%
function mpc = pglib_opf_case8387_pegase__sad
mpc.version = '2';
mpc.baseMVA = 100.0;

%% bus data
%	bus_i	type	Pd	Qd	Gs	Bs	area	Vm	Va	baseKV	zone	Vmax	Vmin
mpc.bus = [
	1	 1	 378.4	 98.5	 0.0	 0.0	 1	    1.00000	    0.00000	 220.0	 1	    1.10000	    0.90000;
	2	 1	 151.0	 48.8	 0.0	 0.0	 1	    1.00000	    0.00000	 220.0	 1	    1.10000	    0.90000;
	3	 1	 171.4081	 23.4	 0.0	 0.0	 1	    1.01394	    0.00000	 220.0	 1	    1.12789	    0.90000;
	4	 1	 45.95095	 14.0	 0.0	 0.0	 1	    1.00000	    0.00000	 220.0	 1	    1.10000	    0.90000;
	5	 2	 343.4	 53.1	 0.0	 20.0	 1	    1.01328	    0.00000	 380.0	 1	    1.12656	    0.90000;
	6	 1	 31.03441	 10.3	 0.0	 0.0	 1	    1.00000	    0.00000	 110.0	 1	    1.10000	    0.90000;
	7	 1	 134.0	 24.7	 0.0	 0.0	 1	    1.03048	    0.00000	 220.0	 1	    1.16095	    0.90000;
	8	 1	 0.0	 0.0	 0.0	 11.29798	 1	    1.00000	    0.00000	 150.0	 1	    1.10000	    0.90000;
	9	 1	 -6.10677	 2.0	 0.0	 0.0	 1	    1.00252	    0.00000	 150.0	 1	    1.10505	    0.90000;
	10	 2	 8.509435	 5.0	 0.0	 0.0	 1	    1.00000	    0.00000	 220.0	 1	    1.10000	    0.90000;
	11	 1	 13.5	 14.8	 0.0	 0.0	 1	    1.03345	    0.00000	 380.0	 1	    1.16690	    0.90000;
	12	 1	 59.66615	 26.7	 0.0	 0.0	 1	    1.00668	    0.00000	 220.0	 1	    1.11337	    0.90000;
	13	 1	 67.67503	 12.1	 0.0	 0.0	 1	    1.00000	    0.00000	 220.0	 1	    1.10000	    0.90000;
	14	 2	 0.0	 0.0	 0.0	 0.0	 1	    1.00000	    0.00000	 380.0	 1	    1.10000	    0.90000;
	15	 1	 25.32808	 7.5	 0.0	 0.0	 1	    1.00000	    0.00000	 110.0	 1	    1.10000	    0.90000;
	16	 1	 161.2	 39.3	 0.0	 0.0	 1	    1.02680	    0.00000	 220.0	 1	    1.15360	    0.90000;
	17	 1	 0.0	 0.0	 0.0	 0.0	 1	    1.02308	    0.00000	 220.0	 1	    1.14616	    0.90000;
	18	 1	 19.62176	 7.1	 0.0	 0.0	 1	    1.00000	    0.00000	 110.0	 1	    1.10000	    0.90000;
	19	 1	 17.21909	 5.7	 0.0	 0.0	 1	    1.00000	    0.00000	 110.0	 1	    1.10000	    0.90000;
	20	 2	 0.0	 0.0	 0.0	 0.0	 1	    1.00000	    0.00000	 220.0	 1	    1.10000	    0.90000;
	21	 1	 167.3	 54.8	 0.0	 0.0	 1	    1.02004	    0.00000	 380.0	 1	    1.14008	    0.90000;
	22	 1	 0.0	 0.0	 0.0	 0.0	 1	    1.02105	    0.00000	 380.0	 1	    1.14211	    0.90000;
	23	 1	 0.0	 0.0	 0.0	 0.0	 1	    1.00000	    0.00000	 150.0	 1	    1.10000	    0.90000;
	24	 1	 152.9	 49.4	 0.0	 0.0	 1	    1.01093	    0.00000	 380.0	 1	    1.12186	    0.90000;
	25	 1	 0.0	 0.0	 0.0	 0.0	 1	    1.00000	    0.00000	 150.0	 1	    1.10000	    0.90000;
	26	 1	 69.67725	 43.2	 0.0	 0.0	 1	    0.98986	    0.00000	 150.0	 1	    1.10000	    0.87973;
	27	 2	 0.0	 0.0	 0.0	 0.0	 1	    1.00000	    0.00000	 220.0	 1	    1.10000	    0.90000;
	28	 2	 0.0	 0.0	 0.0	 0.0	 1	    1.00000	    0.00000	 220.0	 1	    1.10000	    0.90000;
	29	 1	 13.51498	 4.9	 0.0	 0.0	 1	    1.00310	    0.00000	 110.0	 1	    1.10621	    0.90000;
	30	 1	 10.51165	 3.5	 0.0	 0.0	 1	    1.01172	    0.00000	 110.0	 1	    1.12345	    0.90000;
	31	 1	 0.0	 0.0	 0.122998	 0.0	 1	    1.00756	    0.00000	 220.0	 1	    1.11512	    0.90000;
	32	 1	 9.210212	 2.6	 0.0	 0.0	 1	    1.00000	    0.00000	 110.0	 1	    1.10000	    0.90000;
	33	 1	 42.74739	 12.8	 0.0	 0.0	 1	    1.02886	    0.00000	 220.0	 1	    1.15771	    0.90000;
	34	 2	 0.0	 0.0	 0.0	 0.0	 1	    1.00000	    0.00000	 150.0	 1	    1.10000	    0.90000;
	35	 2	 24.02664	 7.8	 0.0	 0.0	 1	    1.00000	    0.00000	 110.0	 1	    1.10000	    0.90000;
	36	 1	 20.82309	 7.9	 0.0	 0.0	 1	    1.01930	    0.00000	 380.0	 1	    1.13861	    0.90000;
	37	 1	 0.0	 0.0	 0.0	 0.0	 1	    1.03070	    0.00000	 220.0	 1	    1.16139	    0.90000;
	38	 1	 10.11121	 3.7	 0.0	 0.0	 1	    1.00689	    0.00000	 110.0	 1	    1.11378	    0.90000;
	39	 1	 10.0111	 2.7	 0.0	 0.0	 1	    1.00000	    0.00000	 110.0	 1	    1.10000	    0.90000;
	40	 1	 6.306993	 0.0	 0.0	 0.0	 1	    1.00000	    0.00000	 110.0	 1	    1.10000	    0.90000;
	41	 1	 2.903219	 0.9	 0.0	 0.0	 1	    1.00000	    0.00000	 110.0	 1	    1.10000	    0.90000;
	42	 2	 0.0	 0.0	 0.0	 0.0	 1	    1.00652	    0.00000	 220.0	 1	    1.11304	    0.90000;
	43	 2	 151.8	 48.3	 0.0	 0.0	 1	    1.00000	    0.00000	 220.0	 1	    1.10000	    0.90000;
	44	 1	 127.6	 31.8	 0.0	 0.0	 1	    1.00986	    0.00000	 150.0	 1	    1.11972	    0.90000;
	45	 1	 48.65394	 16.1	 0.0	 0.0	 1	    1.02079	    0.00000	 220.0	 1	    1.14158	    0.90000;
	46	 1	 110.5	 -26.8	 0.0	 0.0	 1	    1.01425	    0.00000	 220.0	 1	    1.12849	    0.90000;
	47	 1	 0.0	 0.0	 0.0	 0.0	 1	    1.00000	    0.00000	 220.0	 1	    1.10000	    0.90000;
	48	 1	 140.0	 79.7	 0.0	 0.0	 1	    1.00000	    0.00000	 220.0	 1	    1.10000	    0.90000;
	49	 1	 0.0	 0.0	 0.0	 0.0	 1	    1.01785	    0.00000	 380.0	 1	    1.13570	    0.90000;
	50	 1	 119.2	 20.7	 0.0	 0.0	 1	    1.01293	    0.00000	 220.0	 1	    1.12587	    0.90000;
	51	 2	 5.105661	 1.3	 0.0	 0.0	 1	    1.00000	    0.00000	 110.0	 1	    1.10000	    0.90000;
	52	 1	 0.0	 0.0	 0.0	 0.0	 1	    1.00000	    0.00000	 380.0	 1	    1.10000	    0.90000;
	53	 1	 0.0	 0.0	 0.0	 0.0	 1	    1.00000	    0.00000	 110.0	 1	    1.10000	    0.90000;
	54	 1	 187.9	 110.2	 0.0	 20.0	 1	    1.00663	    0.00000	 380.0	 1	    1.11326	    0.90000;
	55	 1	 14.91654	 5.5	 0.0	 0.0	 1	    1.00000	    0.00000	 110.0	 1	    1.10000	    0.90000;
	56	 1	 -18.5205	 6.1	 0.0	 0.0	 1	    1.00000	    0.00000	 150.0	 1	    1.10000	    0.90000;
	57	 1	 4.605106	 1.7	 0.0	 0.0	 1	    1.01755	    0.00000	 110.0	 1	    1.13511	    0.90000;
	58	 1	 0.0	 0.0	 0.090701	 0.0	 1	    1.02465	    0.00000	 380.0	 1	    1.14929	    0.90000;
	59	 1	 10.81199	 5.1	 0.0	 0.0	 1	    1.00000	    0.00000	 110.0	 1	    1.10000	    0.90000;
	60	 1	 62.86971	 20.5	 0.0	 0.0	 1	    1.01094	    0.00000	 150.0	 1	    1.12187	    0.90000;
	61	 1	 126.3	 42.4	 0.0	 0.0	 1	    1.02815	    0.00000	 150.0	 1	    1.15630	    0.90000;
	62	 1	 6.907659	 -4.6	 0.0	 0.0	 1	    1.00000	    0.00000	 220.0	 1	    1.10000	    0.90000;
	63	 1	 15.71743	 5.2	 0.0	 0.0	 1	    1.00000	    0.00000	 110.0	 1	    1.10000	    0.90000;
	64	 1	 0.0	 0.0	 0.0	 17.1282	 1	    1.00000	    0.00000	 150.0	 1	    1.10000	    0.90000;
	65	 1	 38.74295	 6.1	 0.0	 0.0	 1	    1.00377	    0.00000	 220.0	 1	    1.10755	    0.90000;
	66	 1	 22.12453	 10.7	 0.0	 0.0	 1	    1.02891	    0.00000	 220.0	 1	    1.15781	    0.90000;
	67	 1	 0.0	 0.0	 0.0	 0.0	 1	    1.00000	    0.00000	 220.0	 1	    1.10000	    0.90000;
	68	 1	 0.0	 0.0	 0.0	 0.0	 1	    1.00000	    0.00000	 110.0	 1	    1.10000	    0.90000;
	69	 1	 138.8	 136.7	 0.0	 0.0	 1	    1.00000	    0.00000	 380.0	 1	    1.10000	    0.90000;
	70	 2	 137.3	 66.4	 0.0	 0.0	 1	    1.00412	    0.00000	 220.0	 1	    1.10824	    0.90000;
	71	 2	 67.77514	 19.7	 0.0	 0.0	 1	    1.00000	    0.00000	 150.0	 1	    1.10000	    0.90000;
	72	 1	 22.02442	 5.1	 0.0	 0.0	 1	    1.00000	    0.00000	 110.0	 1	    1.20000	    0.80000;
	73	 1	 0.0	 0.0	 0.0	 0.0	 1	    1.00000	    0.00000	 220.0	 1	    1.10000	    0.90000;
	74	 1	 1.00111	 0.3	 0.0	 0.0	 1	    1.01642	    0.00000	 110.0	 1	    1.13284	    0.90000;
	75	 1	 0.0	 0.0	 0.0	 0.0	 1	    1.00000	    0.00000	 150.0	 1	    1.10000	    0.90000;
	76	 1	 21.52386	 5.1	 0.0	 0.0	 1	    1.00000	    0.00000	 110.0	 1	    1.10000	    0.90000;
	77	 1	 71.9798	 28.8	 0.0	 0.0	 1	    1.01750	    0.00000	 220.0	 1	    1.13500	    0.90000;
	78	 1	 0.0	 0.0	 0.173359	 0.0	 1	    1.00000	    0.00000	 380.0	 1	    1.10000	    0.90000;
	79	 2	 365.2	 116.5	 0.0	 0.0	 1	    1.00548	    0.00000	 220.0	 1	    1.11095	    0.90000;
	80	 1	 0.0	 0.0	 0.0	 0.0	 1	    1.02857	    0.00000	 150.0	 1	    1.15715	    0.90000;
	81	 1	 192.9	 73.3	 0.0	 0.0	 1	    1.01310	    0.00000	 380.0	 1	    1.12619	    0.90000;
	82	 1	 17.51942	 6.3	 0.0	 0.0	 1	    1.01760	    0.00000	 110.0	 1	    1.13520	    0.90000;
	83	 1	 33.13674	 12.0	 0.0	 0.0	 1	    1.00000	    0.00000	 110.0	 1	    1.10000	    0.90000;
	84	 1	 40.44484	 25.0	 0.0	 0.0	 1	    1.00000	    0.00000	 150.0	 1	    1.10000	    0.90000;
	85	 2	 212.9	 61.7	 0.0	 0.0	 1	    1.01207	    0.00000	 220.0	 1	    1.12414	    0.90000;
	86	 1	 0.0	 0.0	 0.0	 0.0	 1	    1.01340	    0.00000	 380.0	 1	    1.12681	    0.90000;
	87	 1	 90.70056	 25.5	 0.0	 0.0	 1	    1.00743	    0.00000	 220.0	 1	    1.11487	    0.90000;
	88	 1	 176.3	 -58.9	 0.0	 0.0	 1	    1.02562	    0.00000	 380.0	 1	    1.15124	    0.90000;
	89	 1	 35.93985	 22.3	 0.0	 0.0	 1	    1.00000	    0.00000	 150.0	 1	    1.10000	    0.90000;
	90	 1	 0.0	 0.0	 0.0	 0.0	 1	    1.00000	    0.00000	 150.0	 1	    1.10000	    0.90000;
	91	 1	 0.0	 0.0	 0.0	 0.0	 1	    1.00000	    0.00000	 220.0	 1	    1.10000	    0.90000;
	92	 1	 65.07214	 40.3	 0.0	 0.0	 1	    1.00000	    0.00000	 150.0	 1	    1.10000	    0.90000;
	93	 1	 51.35694	 -8.8	 0.0	 0.0	 1	    1.00000	    0.00000	 220.0	 1	    1.10000	    0.90000;
	94	 1	 0.0	 0.0	 0.0	 0.0	 1	    1.01449	    0.00000	 380.0	 1	    1.12898	    0.90000;
	95	 1	 0.0	 0.0	 0.0	 0.0	 1	    1.04155	    0.00000	 380.0	 1	    1.18311	    0.90000;
	96	 2	 0.0	 0.0	 0.0	 0.0	 1	    1.00954	    0.00000	 380.0	 1	    1.11908	    0.90000;
	97	 1	 3.804218	 1.3	 0.0	 0.0	 1	    1.00000	    0.00000	 110.0	 1	    1.10000	    0.90000;
	98	 1	 0.0	 0.0	 0.0	 0.0	 1	    1.00000	    0.00000	 150.0	 1	    1.10000	    0.90000;
	99	 1	 61.06771	 36.0	 0.0	 0.0	 1	    1.00000	    0.00000	 220.0	 1	    1.10000	    0.90000;
	100	 1	 0.0	 0.0	 0.0	 0.0	 1	    1.01426	    0.00000	 220.0	 1	    1.12853	    0.90000;
	101	 1	 0.0	 0.0	 0.0	 0.0	 1	    1.02297	    0.00000	 380.0	 1	    1.14595	    0.90000;
	102	 1	 0.0	 0.0	 0.0	 0.0	 1	    1.04218	    0.00000	 220.0	 1	    1.18435	    0.90000;
	103	 1	 1.801998	 0.7	 0.0	 0.0	 1	    1.00000	    0.00000	 110.0	 1	    1.10000	    0.90000;
	104	 1	 40.0444	 16.0	 0.0	 0.0	 1	    1.00000	    0.00000	 110.0	 1	    1.10000	    0.90000;
	105	 1	 0.0	 0.0	 0.0	 0.0	 1	    1.00980	    0.00000	 380.0	 1	    1.11960	    0.90000;
	106	 1	 0.0	 0.0	 0.0	 0.0	 1	    1.01150	    0.00000	 150.0	 1	    1.12300	    0.90000;
	107	 1	 45.15006	 14.1	 0.0	 0.0	 1	    1.00000	    0.00000	 110.0	 1	    1.10000	    0.90000;
	108	 1	 0.0	 0.0	 0.0	 0.0	 1	    1.00000	    0.00000	 220.0	 1	    1.10000	    0.90000;
	109	 2	 0.0	 0.0	 0.0	 0.0	 1	    1.00665	    0.00000	 220.0	 1	    1.11331	    0.90000;
	110	 2	 0.0	 0.0	 0.0	 0.0	 1	    1.01601	    0.00000	 220.0	 1	    1.13202	    0.90000;
	111	 2	 8.209102	 4.4	 0.0	 0.0	 1	    1.00000	    0.00000	 110.0	 1	    1.10000	    0.90000;
	112	 1	 0.0	 0.0	 0.0	 0.0	 1	    1.01109	    0.00000	 220.0	 1	    1.12219	    0.90000;
	113	 1	 23.72631	 12.7	 0.0	 0.0	 1	    1.01454	    0.00000	 220.0	 1	    1.12909	    0.90000;
	114	 1	 121.9	 7.4	 0.0	 0.0	 1	    1.00959	    0.00000	 220.0	 1	    1.11918	    0.90000;
	115	 1	 0.0	 0.0	 0.156015	 0.0	 1	    1.02719	    0.00000	 380.0	 1	    1.15438	    0.90000;
	116	 1	 47.3525	 16.4	 0.0	 0.0	 1	    1.00000	    0.00000	 110.0	 1	    1.10000	    0.90000;
	117	 1	 0.0	 0.0	 0.0	 0.0	 1	    1.02734	    0.00000	 380.0	 1	    1.15468	    0.90000;
	118	 1	 38.14229	 12.5	 0.0	 0.0	 1	    1.00880	    0.00000	 150.0	 1	    1.11760	    0.90000;
	119	 1	 130.6	 84.9	 0.0	 0.0	 1	    1.00000	    0.00000	 220.0	 1	    1.10000	    0.90000;
	120	 1	 7.908769	 2.6	 0.0	 0.0	 1	    1.00000	    0.00000	 110.0	 1	    1.10000	    0.90000;
	121	 2	 47.15228	 78.0	 0.0	 0.0	 1	    1.00000	    0.00000	 150.0	 1	    1.10000	    0.90000;
	122	 1	 -75.3836	 7.8	 0.0	 0.0	 1	    1.02934	    0.00000	 380.0	 1	    1.15868	    0.90000;
	123	 1	 0.0	 0.0	 0.0	 0.0	 1	    1.00000	    0.00000	 380.0	 1	    1.10000	    0.90000;
	124	 1	 0.0	 0.0	 0.0	 0.0	 1	    1.00000	    0.00000	 220.0	 1	    1.10000	    0.90000;
	125	 2	 100.9	 49.3	 0.0	 0.0	 1	    1.00263	    0.00000	 220.0	 1	    1.10525	    0.90000;
	126	 2	 0.0	 0.0	 0.0	 0.0	 1	    1.01655	    0.00000	 220.0	 1	    1.13311	    0.90000;
	127	 1	 0.0	 0.0	 0.0	 0.0	 1	    1.01901	    0.00000	 150.0	 1	    1.13802	    0.90000;
	128	 1	 0.0	 0.0	 0.0	 0.0	 1	    1.00000	    0.00000	 380.0	 1	    1.10000	    0.90000;
	129	 1	 38.34251	 5.6	 0.0	 0.0	 1	    1.02298	    0.00000	 220.0	 1	    1.14596	    0.90000;
	130	 1	 269.6	 65.7	 0.0	 0.0	 1	    1.03024	    0.00000	 120.0	 1	    1.16048	    0.90000;
	131	 2	 160.0	 3.3	 0.0	 0.0	 1	    1.02245	    0.00000	 220.0	 1	    1.14491	    0.90000;
	132	 1	 32.33585	 12.0	 0.0	 0.0	 1	    1.01605	    0.00000	 220.0	 1	    1.13210	    0.90000;
	133	 1	 100.1	 45.1	 0.0	 0.0	 1	    1.00781	    0.00000	 380.0	 1	    1.11561	    0.90000;
	134	 2	 12.31365	 3.9	 0.0	 0.0	 1	    1.03188	    0.00000	 220.0	 1	    1.16377	    0.90000;
	135	 1	 0.0	 0.0	 0.0	 0.0	 1	    1.01475	    0.00000	 150.0	 1	    1.12950	    0.90000;
	136	 1	 0.0	 0.0	 0.0	 0.0	 1	    1.00000	    0.00000	 110.0	 1	    1.10000	    0.90000;
	137	 1	 0.0	 0.0	 0.0	 0.0	 1	    1.00000	    0.00000	 110.0	 1	    1.10000	    0.90000;
	138	 1	 40.34473	 25.0	 0.0	 0.0	 1	    1.00000	    0.00000	 150.0	 1	    1.10000	    0.90000;
	139	 1	 9.210212	 3.3	 0.0	 0.0	 1	    1.00362	    0.00000	 110.0	 1	    1.10724	    0.90000;
	140	 1	 166.0	 60.3	 0.0	 0.0	 1	    1.00000	    0.00000	 220.0	 1	    1.10000	    0.90000;
	141	 1	 0.0	 0.0	 0.0	 0.0	 1	    1.00000	    0.00000	 150.0	 1	    1.10000	    0.90000;
	142	 1	 0.0	 0.0	 0.0	 0.0	 1	    1.00745	    0.00000	 150.0	 1	    1.11491	    0.90000;
	143	 1	 0.0	 0.0	 0.0	 0.0	 1	    1.03352	    0.00000	 380.0	 1	    1.16705	    0.90000;
	144	 2	 152.4	 35.1	 0.0	 0.0	 1	    1.01777	    0.00000	 220.0	 1	    1.13555	    0.90000;
	145	 1	 0.0	 0.0	 0.0	 0.0	 1	    1.01955	    0.00000	 150.0	 1	    1.13909	    0.90000;
	146	 1	 26.8	 -3.7	 0.0	 -25.3011	 1	    1.00905	    0.00000	 380.0	 1	    1.11809	    0.90000;
	147	 2	 0.0	 0.0	 0.0	 0.0	 1	    1.00000	    0.00000	 220.0	 1	    1.10000	    0.90000;
	148	 1	 257.5	 131.1	 0.0	 0.0	 1	    1.00000	    0.00000	 220.0	 1	    1.10000	    0.90000;
	149	 1	 0.0	 0.0	 0.0	 0.0	 1	    1.00000	    0.00000	 150.0	 1	    1.10000	    0.90000;
	150	 1	 0.0	 0.0	 0.0	 0.0	 1	    1.00000	    0.00000	 220.0	 1	    1.10000	    0.90000;
	151	 1	 100.8	 13.2	 0.0	 0.0	 1	    1.04391	    0.00000	 220.0	 1	    1.18781	    0.90000;
	152	 2	 113.9	 11.9	 0.0	 0.0	 1	    1.00000	    0.00000	 220.0	 1	    1.10000	    0.90000;
	153	 2	 104.4	 0.7	 0.0	 0.0	 1	    1.00000	    0.00000	 220.0	 1	    1.10000	    0.90000;
	154	 1	 370.5	 -17.0	 0.0	 0.0	 1	    1.02827	    0.00000	 220.0	 1	    1.15654	    0.90000;
	155	 1	 9.910988	 3.2	 0.0	 0.0	 1	    1.00000	    0.00000	 110.0	 1	    1.10000	    0.90000;
	156	 2	 0.0	 0.0	 0.0	 0.0	 1	    1.00000	    0.00000	 150.0	 1	    1.10000	    0.90000;
	157	 1	 94.9	 36.2	 0.0	 0.0	 1	    1.00000	    0.00000	 220.0	 1	    1.10000	    0.90000;
	158	 1	 81.0899	 48.0	 0.0	 0.0	 1	    1.00000	    0.00000	 150.0	 1	    1.10000	    0.90000;
	159	 2	 210.4	 159.2	 0.0	 0.0	 1	    1.01645	    0.00000	 380.0	 1	    1.13289	    0.90000;
	160	 1	 0.0	 0.0	 0.0	 0.0	 1	    1.00000	    0.00000	 110.0	 1	    1.10000	    0.90000;
	161	 1	 54.96094	 16.9	 0.0	 0.0	 1	    1.00000	    0.00000	 110.0	 1	    1.10000	    0.90000;
	162	 1	 19.32142	 26.0	 0.0	 0.0	 1	    1.00000	    0.00000	 220.0	 1	    1.10000	    0.90000;
	163	 1	 0.0	 0.0	 0.0	 0.0	 1	    1.00000	    0.00000	 150.0	 1	    1.10000	    0.90000;
	164	 1	 0.0	 0.0	 0.0	 0.0	 1	    1.01214	    0.00000	 220.0	 1	    1.12428	    0.90000;
	165	 1	 19.92209	 6.6	 0.0	 0.0	 1	    1.00000	    0.00000	 110.0	 1	    1.10000	    0.90000;
	166	 1	 57.16338	 2.0	 0.0	 0.0	 1	    1.00000	    0.00000	 110.0	 1	    1.10000	    0.90000;
	167	 1	 69.57714	 16.0	 0.0	 0.0	 1	    1.03299	    0.00000	 220.0	 1	    1.16597	    0.90000;
	168	 1	 36.84085	 13.9	 0.0	 0.0	 1	    1.03077	    0.00000	 220.0	 1	    1.16155	    0.90000;
	169	 2	 4.805328	 1.3	 0.0	 0.0	 1	    1.00000	    0.00000	 110.0	 1	    1.10000	    0.90000;
	170	 2	 9.210212	 6.0	 0.0	 0.0	 1	    1.00000	    0.00000	 110.0	 1	    1.10000	    0.90000;
	171	 1	 0.0	 0.0	 0.0	 0.0	 1	    1.00512	    0.00000	 220.0	 1	    1.11024	    0.90000;
	172	 2	 0.0	 0.0	 0.0	 0.0	 1	    1.00000	    0.00000	 380.0	 1	    1.10000	    0.90000;
	173	 1	 119.9	 3.7	 0.0	 0.0	 1	    1.00000	    0.00000	 220.0	 1	    1.10000	    0.90000;
	174	 2	 0.0	 0.0	 0.0	 0.0	 1	    1.00389	    0.00000	 150.0	 1	    1.10778	    0.90000;
	175	 2	 75.78402	 24.6	 0.0	 0.0	 1	    1.02662	    0.00000	 220.0	 1	    1.15324	    0.90000;
	176	 1	 0.0	 0.0	 0.0	 0.0	 1	    1.03341	    0.00000	 220.0	 1	    1.16682	    0.90000;
	177	 2	 0.0	 0.0	 0.288019	 0.0	 1	    1.00980	    0.00000	 380.0	 1	    1.11959	    0.90000;
	178	 1	 39.74406	 11.8	 0.0	 0.0	 1	    1.01333	    0.00000	 220.0	 1	    1.12666	    0.90000;
	179	 1	 86.79623	 28.4	 0.0	 0.0	 1	    1.01202	    0.00000	 150.0	 1	    1.12403	    0.90000;
	180	 1	 22.42486	 2.1	 0.0	 0.0	 1	    1.00000	    0.00000	 150.0	 1	    1.10000	    0.90000;
	181	 2	 0.0	 0.0	 0.0	 0.0	 1	    1.00385	    0.00000	 220.0	 1	    1.10770	    0.90000;
	182	 1	 110.9	 32.7	 0.0	 0.0	 1	    1.00000	    0.00000	 220.0	 1	    1.10000	    0.90000;
	183	 1	 0.0	 0.0	 0.191685	 0.0	 1	    1.00682	    0.00000	 220.0	 1	    1.11363	    0.90000;
	184	 1	 46.15117	 18.2	 0.0	 0.0	 1	    1.01722	    0.00000	 150.0	 1	    1.13444	    0.90000;
	185	 1	 34.03774	 12.3	 0.0	 0.0	 1	    1.01882	    0.00000	 110.0	 1	    1.13765	    0.90000;
	186	 2	 322.4	 84.4	 0.0	 0.0	 1	    1.00468	    0.00000	 220.0	 1	    1.10936	    0.90000;
	187	 1	 33.43707	 10.0	 0.0	 0.0	 1	    1.00000	    0.00000	 110.0	 1	    1.10000	    0.90000;
	188	 2	 0.0	 0.0	 0.0	 0.0	 1	    1.00000	    0.00000	 110.0	 1	    1.10000	    0.90000;
	189	 1	 0.0	 0.0	 0.0	 0.0	 1	    1.00000	    0.00000	 110.0	 1	    1.10000	    0.90000;
	190	 1	 75.28346	 19.2	 0.0	 0.0	 1	    1.00758	    0.00000	 110.0	 1	    1.11516	    0.90000;
	191	 2	 219.6	 77.5	 0.0	 0.0	 1	    1.00634	    0.00000	 220.0	 1	    1.11269	    0.90000;
	192	 1	 37.3414	 10.9	 0.0	 0.0	 1	    1.00000	    0.00000	 110.0	 1	    1.20000	    0.80000;
	193	 2	 340.0	 93.8	 0.0	 0.0	 1	    1.01309	    0.00000	 380.0	 1	    1.12617	    0.90000;
	194	 1	 0.0	 0.0	 0.0	 0.0	 1	    1.00000	    0.00000	 110.0	 1	    1.10000	    0.90000;
	195	 1	 155.6	 54.7	 0.0	 0.0	 1	    1.01826	    0.00000	 220.0	 1	    1.13653	    0.90000;
	196	 1	 105.2	 0.1	 0.0	 0.0	 1	    1.01766	    0.00000	 220.0	 1	    1.13531	    0.90000;
	197	 2	 80.9898	 21.0	 0.0	 0.0	 1	    1.00321	    0.00000	 220.0	 1	    1.10643	    0.90000;
	198	 2	 0.0	 0.0	 0.0	 0.0	 1	    1.01008	    0.00000	 380.0	 1	    1.12015	    0.90000;
	199	 2	 0.0	 0.0	 0.0	 0.0	 1	    1.03238	    0.00000	 380.0	 1	    1.16475	    0.90000;
	200	 2	 0.0	 0.0	 0.0	 0.0	 1	    1.01916	    0.00000	 380.0	 1	    1.13832	    0.90000;
	201	 2	 176.2	 20.8	 0.0	 0.0	 1	    1.00000	    0.00000	 150.0	 1	    1.10000	    0.90000;
	202	 1	 27.02997	 8.8	 0.0	 0.0	 1	    1.00000	    0.00000	 110.0	 1	    1.10000	    0.90000;
	203	 1	 2.602886	 0.5	 0.0	 0.0	 1	    1.00000	    0.00000	 110.0	 1	    1.10000	    0.90000;
	204	 1	 0.0	 0.0	 0.0	 0.0	 1	    1.04080	    0.00000	 220.0	 1	    1.18161	    0.90000;
	205	 1	 14.61621	 4.8	 0.0	 0.0	 1	    1.00000	    0.00000	 110.0	 1	    1.10000	    0.90000;
	206	 1	 0.0	 0.0	 0.0	 0.0	 1	    1.01103	    0.00000	 220.0	 1	    1.12206	    0.90000;
	207	 1	 -23.426	 57.4	 0.0	 0.0	 1	    1.02443	    0.00000	 150.0	 1	    1.14886	    0.90000;
	208	 1	 426.6	 93.7	 0.0	 0.0	 1	    1.02237	    0.00000	 380.0	 1	    1.14475	    0.90000;
	209	 2	 154.2	 23.3	 0.0	 0.0	 1	    1.00000	    0.00000	 220.0	 1	    1.10000	    0.90000;
	210	 2	 0.0	 0.0	 0.0	 0.0	 1	    1.00601	    0.00000	 110.0	 1	    1.11201	    0.90000;
	211	 1	 0.0	 0.0	 0.0	 0.0	 1	    1.00000	    0.00000	 150.0	 1	    1.10000	    0.90000;
	212	 1	 2.502775	 3.8	 0.0	 0.0	 1	    1.00000	    0.00000	 110.0	 1	    1.10000	    0.90000;
	213	 1	 34.03774	 4.4	 0.0	 0.0	 1	    1.00000	    0.00000	 110.0	 1	    1.10000	    0.90000;
	214	 1	 45.85083	 7.0	 0.0	 0.0	 1	    1.00547	    0.00000	 220.0	 1	    1.11094	    0.90000;
	215	 1	 0.0	 0.0	 0.0	 0.0	 1	    1.01230	    0.00000	 380.0	 1	    1.12459	    0.90000;
	216	 1	 0.0	 0.0	 0.0	 0.0	 1	    1.01529	    0.00000	 220.0	 1	    1.13058	    0.90000;
	217	 2	 46.05106	 16.9	 0.0	 0.0	 1	    1.01593	    0.00000	 110.0	 1	    1.13186	    0.90000;
	218	 1	 0.0	 0.0	 0.0	 12.42588	 1	    1.00000	    0.00000	 150.0	 1	    1.10000	    0.90000;
	219	 1	 0.0	 0.0	 0.0	 0.0	 1	    1.00000	    0.00000	 220.0	 1	    1.10000	    0.90000;
	220	 1	 167.9	 18.2	 0.0	 0.0	 1	    1.01733	    0.00000	 220.0	 1	    1.13466	    0.90000;
	221	 1	 0.0	 0.0	 0.0	 0.0	 1	    1.00000	    0.00000	 150.0	 1	    1.10000	    0.90000;
	222	 1	 0.0	 0.0	 0.0	 0.0	 1	    1.00487	    0.00000	 150.0	 1	    1.10975	    0.90000;
	223	 1	 16.61843	 5.5	 0.0	 0.0	 1	    1.00000	    0.00000	 110.0	 1	    1.10000	    0.90000;
	224	 2	 131.9	 31.1	 0.0	 0.0	 1	    1.00000	    0.00000	 220.0	 1	    1.20000	    0.80000;
	225	 1	 0.0	 0.0	 0.0	 0.0	 1	    1.00000	    0.00000	 110.0	 1	    1.10000	    0.90000;
	226	 2	 224.2	 73.9	 0.0	 0.0	 1	    1.00382	    0.00000	 380.0	 1	    1.10764	    0.90000;
	227	 1	 0.0	 0.0	 0.0	 0.0	 1	    1.00000	    0.00000	 220.0	 1	    1.10000	    0.90000;
	228	 1	 0.0	 0.0	 0.0	 0.0	 1	    1.00380	    0.00000	 380.0	 1	    1.10759	    0.90000;
	229	 1	 0.0	 0.0	 0.0	 0.0	 1	    1.00309	    0.00000	 220.0	 1	    1.10617	    0.90000;
	230	 1	 0.0	 0.0	 0.0	 0.0	 1	    1.00565	    0.00000	 220.0	 1	    1.11130	    0.90000;
	231	 1	 0.0	 0.0	 0.152776	 0.0	 1	    1.01758	    0.00000	 380.0	 1	    1.13516	    0.90000;
	232	 2	 0.0	 0.0	 0.0	 0.0	 1	    1.02376	    0.00000	 380.0	 1	    1.14752	    0.90000;
	233	 1	 0.0	 0.0	 0.0	 0.0	 1	    1.02867	    0.00000	 220.0	 1	    1.15733	    0.90000;
	234	 1	 113.9	 24.5	 0.0	 0.0	 1	    1.00000	    0.00000	 220.0	 1	    1.10000	    0.90000;
	235	 2	 43.34806	 26.9	 0.0	 0.0	 1	    1.00000	    0.00000	 150.0	 1	    1.10000	    0.90000;
	236	 1	 216.8	 40.5	 0.0	 0.0	 1	    1.01055	    0.00000	 220.0	 1	    1.12110	    0.90000;
	237	 1	 0.0	 0.0	 0.0	 0.0	 1	    1.02308	    0.00000	 380.0	 1	    1.14616	    0.90000;
	238	 2	 160.8	 10.6	 0.0	 0.0	 1	    1.01017	    0.00000	 220.0	 1	    1.12034	    0.90000;
	239	 1	 38.74295	 9.0	 0.0	 0.0	 1	    1.00000	    0.00000	 220.0	 1	    1.10000	    0.90000;
	240	 1	 350.4	 29.3	 0.0	 0.0	 1	    1.02510	    0.00000	 220.0	 1	    1.15020	    0.90000;
	241	 1	 0.0	 0.0	 0.0	 -261.753	 1	    1.02753	    0.00000	 380.0	 1	    1.15507	    0.90000;
	242	 1	 103.8	 2.7	 0.0	 0.0	 1	    1.00000	    0.00000	 220.0	 1	    1.10000	    0.90000;
	243	 2	 0.0	 0.0	 0.0	 0.0	 1	    1.03173	    0.00000	 220.0	 1	    1.16345	    0.90000;
	244	 1	 0.0	 0.0	 0.0	 0.0	 1	    1.00000	    0.00000	 110.0	 1	    1.10000	    0.90000;
	245	 1	 0.0	 0.0	 0.0	 0.0	 1	    1.00000	    0.00000	 380.0	 1	    1.10000	    0.90000;
	246	 1	 96.7	 26.8	 0.0	 0.0	 1	    1.02364	    0.00000	 150.0	 1	    1.14727	    0.90000;
	247	 1	 0.0	 0.0	 0.0	 0.0	 1	    1.02198	    0.00000	 150.0	 1	    1.14395	    0.90000;
	248	 1	 0.0	 0.0	 0.0	 0.0	 1	    1.00000	    0.00000	 220.0	 1	    1.10000	    0.90000;
	249	 1	 19.02109	 6.0	 0.0	 0.0	 1	    1.00000	    0.00000	 110.0	 1	    1.10000	    0.90000;
	250	 1	 102.1	 25.3	 0.0	 0.0	 1	    1.00568	    0.00000	 150.0	 1	    1.11136	    0.90000;
	251	 1	 0.0	 0.0	 0.0	 0.0	 1	    1.00000	    0.00000	 220.0	 1	    1.10000	    0.90000;
	252	 1	 0.0	 0.0	 0.0	 0.0	 1	    1.00000	    0.00000	 150.0	 1	    1.10000	    0.90000;
	253	 2	 113.3	 30.2	 0.0	 0.0	 1	    1.00000	    0.00000	 110.0	 1	    1.10000	    0.90000;
	254	 1	 8.309213	 3.0	 0.0	 0.0	 1	    1.00629	    0.00000	 110.0	 1	    1.11258	    0.90000;
	255	 1	 119.6	 29.6	 0.0	 0.0	 1	    1.02818	    0.00000	 220.0	 1	    1.15635	    0.90000;
	256	 1	 0.0	 0.0	 0.0	 0.0	 1	    1.00854	    0.00000	 380.0	 1	    1.11709	    0.90000;
	257	 2	 49.9	 144.0	 0.0	 0.0	 1	    1.02506	    0.00000	 380.0	 1	    1.15011	    0.90000;
	258	 1	 27.3303	 11.9	 0.0	 0.0	 1	    1.00834	    0.00000	 220.0	 1	    1.11668	    0.90000;
	259	 1	 191.2	 -3.4	 0.0	 0.0	 1	    1.00692	    0.00000	 220.0	 1	    1.11384	    0.90000;
	260	 1	 0.0	 0.0	 0.03458	 0.0	 1	    1.00000	    0.00000	 380.0	 1	    1.10000	    0.90000;
	261	 1	 177.1	 66.9	 0.0	 0.0	 1	    1.02394	    0.00000	 380.0	 1	    1.14787	    0.90000;
	262	 1	 0.0	 0.0	 0.0	 0.0	 1	    1.01106	    0.00000	 150.0	 1	    1.12212	    0.90000;
	263	 2	 0.0	 0.0	 0.0	 0.0	 1	    1.02069	    0.00000	 220.0	 1	    1.14137	    0.90000;
	264	 1	 53.45927	 18.7	 0.0	 0.0	 1	    1.00000	    0.00000	 220.0	 1	    1.10000	    0.90000;
	265	 1	 0.0	 0.0	 0.0	 0.0	 1	    1.00000	    0.00000	 220.0	 1	    1.10000	    0.90000;
	266	 1	 13.81532	 1.4	 0.0	 0.0	 1	    1.01764	    0.00000	 220.0	 1	    1.13528	    0.90000;
	267	 1	 85.1	 67.0	 0.0	 0.0	 1	    1.01018	    0.00000	 150.0	 1	    1.12035	    0.90000;
	268	 1	 0.0	 0.0	 0.0	 0.0	 1	    1.00899	    0.00000	 220.0	 1	    1.11797	    0.90000;
	269	 1	 189.3	 76.7	 0.0	 0.0	 1	    1.00000	    0.00000	 220.0	 1	    1.10000	    0.90000;
	270	 1	 23.72631	 9.4	 0.0	 0.0	 1	    1.02215	    0.00000	 150.0	 1	    1.14430	    0.90000;
	271	 1	 10.0111	 -21.0	 0.0	 0.0	 1	    1.01709	    0.00000	 220.0	 1	    1.13418	    0.90000;
	272	 2	 228.1	 131.8	 0.0	 0.0	 1	    1.01005	    0.00000	 380.0	 1	    1.12010	    0.90000;
	273	 1	 0.0	 0.0	 0.0	 0.0	 1	    1.00000	    0.00000	 150.0	 1	    1.10000	    0.90000;
	274	 2	 0.0	 0.0	 0.0	 0.0	 1	    1.00000	    0.00000	 110.0	 1	    1.10000	    0.90000;
	275	 1	 431.7	 121.6	 0.0	 0.0	 1	    1.00000	    0.00000	 220.0	 1	    1.10000	    0.90000;
	276	 1	 2.202442	 0.5	 0.0	 0.0	 1	    1.00000	    0.00000	 150.0	 1	    1.10000	    0.90000;
	277	 1	 103.0	 12.0	 0.0	 0.0	 1	    1.04213	    0.00000	 220.0	 1	    1.18425	    0.90000;
	278	 1	 0.0	 0.0	 0.0	 0.0	 1	    1.03295	    0.00000	 220.0	 1	    1.16589	    0.90000;
	279	 1	 0.0	 0.0	 0.0	 0.0	 1	    1.02778	    0.00000	 380.0	 1	    1.15556	    0.90000;
	280	 1	 0.0	 0.0	 0.0	 40.46213	 1	    0.96551	    0.00000	 150.0	 1	    1.10000	    0.83101;
	281	 2	 0.0	 0.0	 0.0	 0.0	 1	    1.00000	    0.00000	 220.0	 1	    1.10000	    0.90000;
	282	 2	 -463.61	 253.81	 0.0	 0.0	 1	    1.03765	    0.00000	 380.0	 1	    1.17531	    0.90000;
	283	 1	 42.04662	 17.2	 0.0	 0.0	 1	    1.01788	    0.00000	 150.0	 1	    1.13575	    0.90000;
	284	 2	 0.0	 0.0	 0.0	 0.0	 1	    1.02219	    0.00000	 110.0	 1	    1.14437	    0.90000;
	285	 1	 163.1	 46.3	 0.0	 0.0	 1	    1.01183	    0.00000	 220.0	 1	    1.12366	    0.90000;
	286	 1	 0.0	 0.0	 0.0	 0.0	 1	    1.00270	    0.00000	 220.0	 1	    1.10541	    0.90000;
	287	 1	 0.0	 0.0	 0.0	 0.0	 1	    1.01780	    0.00000	 220.0	 1	    1.13559	    0.90000;
	288	 1	 0.0	 0.0	 0.041702	 0.0	 1	    1.01745	    0.00000	 380.0	 1	    1.13490	    0.90000;
	289	 1	 0.0	 0.0	 0.0	 0.0	 1	    1.00000	    0.00000	 150.0	 1	    1.10000	    0.90000;
	290	 1	 67.17448	 -23.9	 0.0	 0.0	 1	    1.00000	    0.00000	 220.0	 1	    1.10000	    0.90000;
	291	 1	 303.8	 85.4	 0.0	 0.0	 1	    1.00000	    0.00000	 220.0	 1	    1.10000	    0.90000;
	292	 2	 0.0	 0.0	 0.0	 0.0	 1	    1.00709	    0.00000	 380.0	 1	    1.11417	    0.90000;
	293	 1	 0.0	 0.0	 0.0	 0.0	 1	    1.03177	    0.00000	 220.0	 1	    1.16355	    0.90000;
	294	 1	 0.0	 0.0	 0.0	 0.0	 1	    1.01207	    0.00000	 380.0	 1	    1.12414	    0.90000;
	295	 2	 291.5	 51.3	 0.0	 0.0	 1	    1.00000	    0.00000	 220.0	 1	    1.10000	    0.90000;
	296	 1	 24.22686	 7.1	 0.0	 0.0	 1	    1.00000	    0.00000	 110.0	 1	    1.10000	    0.90000;
	297	 1	 108.6	 2.6	 0.0	 0.0	 1	    1.00417	    0.00000	 380.0	 1	    1.10834	    0.90000;
	298	 1	 4.00444	 2.4	 0.0	 0.0	 1	    1.00000	    0.00000	 150.0	 1	    1.10000	    0.90000;
	299	 1	 30.0333	 10.9	 0.0	 0.0	 1	    1.00000	    0.00000	 110.0	 1	    1.10000	    0.90000;
	300	 1	 524.5	 43.0	 0.0	 0.0	 1	    1.01275	    0.00000	 220.0	 1	    1.12550	    0.90000;
	301	 1	 0.0	 0.0	 0.0	 0.0	 1	    1.00000	    0.00000	 110.0	 1	    1.10000	    0.90000;
	302	 1	 4.404884	 0.0	 0.0	 0.0	 1	    1.00000	    0.00000	 110.0	 1	    1.10000	    0.90000;
	303	 2	 7.408214	 2.7	 0.0	 0.0	 1	    1.01644	    0.00000	 110.0	 1	    1.13289	    0.90000;
	304	 2	 0.0	 0.0	 0.0	 0.0	 1	    1.01816	    0.00000	 220.0	 1	    1.13633	    0.90000;
	305	 1	 0.0	 0.0	 0.0	 0.0	 1	    1.02726	    0.00000	 220.0	 1	    1.15453	    0.90000;
	306	 1	 186.6	 56.6	 0.0	 0.0	 1	    1.02581	    0.00000	 380.0	 1	    1.15162	    0.90000;
	307	 1	 0.0	 0.0	 0.0	 0.0	 1	    1.00000	    0.00000	 110.0	 1	    1.10000	    0.90000;
	308	 2	 48.2535	 23.5	 0.0	 0.0	 1	    1.01782	    0.00000	 220.0	 1	    1.13565	    0.90000;
	309	 1	 3.203552	 1.2	 0.0	 0.0	 1	    1.01179	    0.00000	 110.0	 1	    1.12359	    0.90000;
	310	 1	 372.8	 147.5	 0.0	 0.0	 1	    1.02098	    0.00000	 150.0	 1	    1.14195	    0.90000;
	311	 1	 0.0	 0.0	 0.087531	 0.0	 1	    1.01269	    0.00000	 220.0	 1	    1.12538	    0.90000;
	312	 1	 197.5	 48.3	 0.0	 0.0	 1	    1.01785	    0.00000	 220.0	 1	    1.13570	    0.90000;
	313	 2	 0.0	 0.0	 0.0	 0.0	 1	    1.02752	    0.00000	 380.0	 1	    1.15504	    0.90000;
	314	 1	 0.0	 0.0	 0.0	 0.0	 1	    1.02472	    0.00000	 150.0	 1	    1.14945	    0.90000;
	315	 1	 110.4	 26.2	 0.0	 0.0	 1	    1.03073	    0.00000	 220.0	 1	    1.16146	    0.90000;