%%%%%%%%%%%%%%%%%%%%%%%%%%%%%%%%%%%%%%%%%%%%%%%%%%%%%%%%%%%%%%%%%%%%%%%%%%%
%%%%                                                                  %%%%%
%%%%    IEEE PES Power Grid Library - Optimal Power Flow - v23.07     %%%%%
%%%%          (https://github.com/power-grid-lib/pglib-opf)           %%%%%
%%%%             Benchmark Group - Small Angle Difference             %%%%%
%%%%                         23 - July - 2023                         %%%%%
%%%%                                                                  %%%%%
%%%%%%%%%%%%%%%%%%%%%%%%%%%%%%%%%%%%%%%%%%%%%%%%%%%%%%%%%%%%%%%%%%%%%%%%%%%
function mpc = pglib_opf_case4917_goc__sad
mpc.version = '2';
mpc.baseMVA = 100.0;

%% bus data
%	bus_i	type	Pd	Qd	Gs	Bs	area	Vm	Va	baseKV	zone	Vmax	Vmin
mpc.bus = [
	1	 1	 8.252	 -0.234	 0.0	 0.0	 1	    0.99750	    0.00000	 13.0	 1	    1.05000	    0.94500;
	2	 1	 0.0	 0.0	 0.0	 0.0	 1	    0.99750	    0.00000	 13.0	 1	    1.05000	    0.94500;
	3	 1	 0.178	 0.504	 0.0	 0.0	 1	    0.99750	    0.00000	 69.0	 1	    1.05000	    0.94500;
	4	 1	 7.958	 -0.347	 0.0	 0.0	 1	    0.99750	    0.00000	 13.0	 1	    1.05000	    0.94500;
	5	 1	 0.0	 0.0	 0.0	 0.0	 1	    0.99750	    0.00000	 13.0	 1	    1.05000	    0.94500;
	6	 2	 2.551	 3.396	 0.0	 0.0	 1	    0.99750	    0.00000	 69.0	 1	    1.05000	    0.94500;
	7	 1	 6.084	 0.417	 0.0	 0.0	 1	    0.99750	    0.00000	 13.0	 1	    1.05000	    0.94500;
	8	 1	 2.739	 0.495	 0.0	 0.0	 1	    0.99750	    0.00000	 13.0	 1	    1.05000	    0.94500;
	9	 2	 0.0	 0.0	 0.0	 0.0	 1	    0.99750	    0.00000	 69.0	 1	    1.05000	    0.94500;
	10	 1	 1.9	 1.259	 0.0	 0.0	 1	    0.99750	    0.00000	 69.0	 1	    1.05000	    0.94500;
	11	 1	 3.667	 0.729	 0.0	 0.0	 1	    0.99750	    0.00000	 69.0	 1	    1.05000	    0.94500;
	12	 1	 0.0	 0.0	 0.0	 0.0	 1	    0.99750	    0.00000	 69.0	 1	    1.05000	    0.94500;
	13	 1	 0.0	 0.0	 0.0	 0.0	 1	    0.99750	    0.00000	 69.0	 1	    1.05000	    0.94500;
	14	 1	 0.0	 0.0	 0.0	 0.0	 1	    0.99750	    0.00000	 69.0	 1	    1.05000	    0.94500;
	15	 1	 0.0	 0.0	 0.0	 0.0	 1	    0.99750	    0.00000	 69.0	 1	    1.05000	    0.94500;
	16	 2	 0.0	 0.0	 0.0	 0.0	 1	    0.99750	    0.00000	 69.0	 1	    1.05000	    0.94500;
	17	 1	 12.391	 -1.433	 0.0	 0.0	 1	    0.99750	    0.00000	 69.0	 1	    1.05000	    0.94500;
	18	 1	 0.0	 0.0	 0.0	 0.0	 1	    0.99750	    0.00000	 69.0	 1	    1.05000	    0.94500;
	19	 1	 0.0	 0.0	 0.0	 0.0	 1	    0.99750	    0.00000	 69.0	 1	    1.05000	    0.94500;
	20	 1	 6.495	 0.938	 0.0	 0.0	 1	    0.99750	    0.00000	 13.0	 1	    1.05000	    0.94500;
	21	 1	 9.554	 0.399	 0.0	 0.0	 1	    0.99750	    0.00000	 13.0	 1	    1.05000	    0.94500;
	22	 1	 4.059	 0.452	 0.0	 0.0	 1	    0.99750	    0.00000	 13.0	 1	    1.05000	    0.94500;
	23	 1	 0.731	 5.284	 0.0	 6.08	 1	    0.99750	    0.00000	 69.0	 1	    1.05000	    0.94500;
	24	 1	 1.124	 0.894	 0.0	 0.0	 1	    0.99750	    0.00000	 13.0	 1	    1.05000	    0.94500;
	25	 1	 19.216	 -2.484	 0.0	 10.7994369548	 1	    0.99750	    0.00000	 69.0	 1	    1.05000	    0.94500;
	26	 2	 0.0	 0.0	 0.0	 0.0	 1	    0.99750	    0.00000	 69.0	 1	    1.05000	    0.94500;
	27	 1	 8.894	 0.156	 0.0	 0.0	 1	    0.99750	    0.00000	 13.0	 1	    1.05000	    0.94500;
	28	 1	 0.0	 0.0	 0.0	 0.0115112286574	 1	    0.99750	    0.00000	 230.0	 2	    1.05000	    0.94500;
	29	 1	 0.0	 0.0	 0.0	 0.0	 1	    0.99750	    0.00000	 1.0	 2	    1.05000	    0.94500;
	30	 1	 0.0	 0.0	 0.0	 2.58856290847	 1	    0.99750	    0.00000	 115.0	 2	    1.05000	    0.94500;
	31	 1	 -84.536	 19.644	 0.0	 0.0154304188359	 1	    0.99750	    0.00000	 115.0	 2	    1.05000	    0.94500;
	32	 1	 108.917	 51.229	 0.0	 1.9499780274	 1	    0.99750	    0.00000	 115.0	 2	    1.05000	    0.94500;
	33	 1	 0.0	 0.0	 0.0	 0.0	 1	    0.99750	    0.00000	 230.0	 2	    1.05000	    0.94500;
	34	 1	 -141.612	 -0.712	 0.0	 -4.8161904231	 1	    0.99750	    0.00000	 115.0	 2	    1.05000	    0.94500;
	35	 1	 0.0	 0.0	 0.0	 0.00296345705944	 1	    0.99750	    0.00000	 115.0	 2	    1.05000	    0.94500;
	36	 1	 97.168	 -39.905	 0.0	 21.8998089014	 1	    0.99750	    0.00000	 115.0	 2	    1.05000	    0.94500;
	37	 1	 0.0	 0.0	 0.0	 -0.857770246841	 1	    0.99750	    0.00000	 115.0	 2	    1.05000	    0.94500;
	38	 1	 40.769	 5.193	 0.0	 0.0	 1	    0.99750	    0.00000	 115.0	 2	    1.05000	    0.94500;
	39	 1	 20.421	 2.421	 0.0	 2.673	 1	    0.99750	    0.00000	 230.0	 2	    1.05000	    0.94500;
	40	 1	 0.0	 0.0	 0.0	 33.2699471293	 1	    0.99750	    0.00000	 230.0	 2	    1.05000	    0.94500;
	41	 1	 388.332	 -19.047	 0.0	 0.0	 1	    0.99750	    0.00000	 345.0	 2	    1.05000	    0.94500;
	42	 1	 -84.553	 19.644	 0.0	 0.0154249539518	 1	    0.99750	    0.00000	 115.0	 2	    1.05000	    0.94500;
	43	 1	 118.897	 0.163	 0.0	 -17.596	 1	    0.99750	    0.00000	 230.0	 2	    1.05000	    0.94500;
	44	 1	 25.719	 6.8	 0.0	 0.0	 1	    0.99750	    0.00000	 230.0	 2	    1.05000	    0.94500;
	45	 1	 36.719	 2.683	 0.0	 0.0	 1	    0.99750	    0.00000	 230.0	 2	    1.05000	    0.94500;
	46	 2	 0.0	 0.0	 0.0	 0.0	 1	    0.99750	    0.00000	 500.0	 2	    1.05000	    0.94500;
	47	 1	 0.0	 0.0	 0.0	 0.0	 1	    0.99750	    0.00000	 1.0	 2	    1.05000	    0.94500;
	48	 2	 -85.214	 25.688	 0.0	 0.0	 1	    0.99750	    0.00000	 22.8	 2	    1.05000	    0.94500;
	49	 1	 0.0	 0.0	 0.0	 47.499852397	 1	    0.99750	    0.00000	 230.0	 2	    1.05000	    0.94500;
	50	 2	 0.0	 0.0	 0.0	 -109.984	 1	    0.99750	    0.00000	 345.0	 2	    1.05000	    0.94500;
	51	 1	 0.0	 0.0	 0.0	 -0.353698269531	 1	    0.99750	    0.00000	 138.0	 2	    1.05000	    0.94500;
	52	 1	 -95.883	 20.573	 0.0	 0.0	 1	    0.99750	    0.00000	 21.0	 2	    1.05000	    0.94500;
	53	 1	 96.936	 -19.253	 0.0	 3.52997945004	 1	    0.99750	    0.00000	 230.0	 2	    1.05000	    0.94500;
	54	 2	 134.93	 -36.266	 0.0	 0.0	 1	    0.99750	    0.00000	 115.0	 2	    1.05000	    0.94500;
	55	 1	 -193.301	 -6.227	 0.0	 -0.00429687080184	 1	    0.99750	    0.00000	 115.0	 2	    1.05000	    0.94500;
	56	 1	 0.0	 0.0	 0.0	 -3.98369073905	 1	    0.99750	    0.00000	 115.0	 2	    1.05000	    0.94500;
	57	 1	 78.469	 23.127	 0.0	 44.7657810229	 1	    0.99750	    0.00000	 161.0	 2	    1.05000	    0.94500;
	58	 1	 0.0	 0.0	 0.0	 -0.868921177249	 1	    0.99750	    0.00000	 230.0	 2	    1.05000	    0.94500;
	59	 2	 60.538	 15.258	 0.0	 0.0	 1	    0.99750	    0.00000	 161.0	 2	    1.05000	    0.94500;
	60	 1	 -43.829	 24.646	 0.0	 -0.00134789283948	 1	    0.99750	    0.00000	 115.0	 2	    1.05000	    0.94500;
	61	 1	 93.448	 72.654	 0.0	 117.171948383	 1	    0.99750	    0.00000	 115.0	 2	    1.05000	    0.94500;
	62	 1	 27.521	 4.794	 0.0	 0.0	 1	    0.99750	    0.00000	 230.0	 2	    1.05000	    0.94500;
	63	 1	 0.0	 0.0	 0.0	 -2.39870628637	 1	    0.99750	    0.00000	 138.0	 2	    1.05000	    0.94500;
	64	 1	 0.0	 0.0	 0.0	 -0.0158257362728	 1	    0.99750	    0.00000	 230.0	 2	    1.05000	    0.94500;
	65	 1	 0.0	 0.0	 0.0	 -0.00543947763116	 1	    0.99750	    0.00000	 230.0	 2	    1.05000	    0.94500;
	66	 1	 0.0	 0.0	 0.0	 16.9282887087	 1	    0.99750	    0.00000	 230.0	 2	    1.05000	    0.94500;
	67	 1	 0.0	 0.0	 0.0	 10.73167357	 1	    0.99750	    0.00000	 230.0	 2	    1.05000	    0.94500;
	68	 1	 0.0	 0.0	 0.0	 -0.0350512421951	 1	    0.99750	    0.00000	 161.0	 2	    1.05000	    0.94500;
	69	 2	 32.553	 5.28	 0.0	 -47.238	 1	    0.99750	    0.00000	 230.0	 2	    1.05000	    0.94500;
	70	 2	 0.0	 0.0	 0.0	 0.0	 1	    0.99750	    0.00000	 230.0	 2	    1.05000	    0.94500;
	71	 1	 -141.603	 -1.198	 0.0	 -5.30192331945	 1	    0.99750	    0.00000	 115.0	 2	    1.05000	    0.94500;
	72	 1	 0.0	 0.0	 0.0	 0.0	 1	    0.99750	    0.00000	 230.0	 2	    1.05000	    0.94500;
	73	 2	 0.0	 0.0	 0.0	 17.995	 1	    0.99750	    0.00000	 1.0	 2	    1.05000	    0.94500;
	74	 1	 136.474	 -31.264	 0.0	 12.4398188082	 1	    0.99750	    0.00000	 115.0	 2	    1.05000	    0.94500;
	75	 1	 0.0	 0.0	 0.0	 0.0	 1	    0.99750	    0.00000	 230.0	 2	    1.05000	    0.94500;
	76	 1	 30.082	 3.7	 0.0	 0.00280008871111	 1	    0.99750	    0.00000	 115.0	 2	    1.05000	    0.94500;
	77	 1	 21.41	 -4.733	 0.0	 6.63977873646	 1	    0.99750	    0.00000	 230.0	 2	    1.05000	    0.94500;
	78	 2	 0.0	 0.0	 0.0	 12.364	 1	    0.99750	    0.00000	 1.0	 2	    1.05000	    0.94500;
	79	 1	 20.804	 2.371	 0.0	 0.0	 1	    0.99750	    0.00000	 230.0	 2	    1.05000	    0.94500;
	80	 1	 0.0	 0.0	 0.0	 0.0	 1	    0.99750	    0.00000	 500.0	 2	    1.05000	    0.94500;
	81	 1	 183.238	 11.185	 0.0	 0.0	 1	    0.99750	    0.00000	 230.0	 2	    1.05000	    0.94500;
	82	 1	 23.025	 1.607	 0.0	 0.0	 1	    0.99750	    0.00000	 35.0	 3	    1.05000	    0.94500;
	83	 1	 2.141	 -2.058	 0.0	 0.0	 1	    0.99750	    0.00000	 115.0	 3	    1.05000	    0.94500;
	84	 1	 16.334	 0.052	 0.0	 0.0	 1	    0.99750	    0.00000	 35.0	 3	    1.05000	    0.94500;
	85	 1	 3.14	 2.692	 0.0	 0.0	 1	    0.99750	    0.00000	 115.0	 3	    1.05000	    0.94500;
	86	 1	 45.595	 37.117	 0.0	 0.0	 1	    0.99750	    0.00000	 4.0	 3	    1.05000	    0.94500;
	87	 1	 19.76	 0.747	 0.0	 0.0	 1	    0.99750	    0.00000	 35.0	 3	    1.05000	    0.94500;
	88	 1	 37.727	 2.102	 0.0	 0.0	 1	    0.99750	    0.00000	 22.0	 3	    1.05000	    0.94500;
	89	 2	 0.0	 0.0	 0.0	 0.0	 1	    0.99750	    0.00000	 13.0	 3	    1.05000	    0.94500;
	90	 2	 2.792	 0.13	 0.0	 -4.777	 1	    0.99750	    0.00000	 115.0	 3	    1.05000	    0.94500;
	91	 1	 0.0	 0.0	 0.0	 0.0	 1	    0.99750	    0.00000	 230.0	 3	    1.05000	    0.94500;
	92	 1	 0.0	 0.0	 0.0	 33.9989875512	 1	    0.99750	    0.00000	 115.0	 3	    1.05000	    0.94500;
	93	 1	 9.724	 -2.822	 0.0	 0.0	 1	    0.99750	    0.00000	 13.0	 3	    1.05000	    0.94500;
	94	 1	 0.0	 0.0	 0.0	 0.0	 1	    0.99750	    0.00000	 230.0	 3	    1.05000	    0.94500;
	95	 1	 23.498	 1.954	 0.0	 0.0	 1	    0.99750	    0.00000	 35.0	 3	    1.05000	    0.94500;
	96	 1	 0.0	 0.0	 0.0	 0.0	 1	    0.99750	    0.00000	 115.0	 3	    1.05000	    0.94500;
	97	 1	 0.0	 0.0	 0.0	 0.0	 1	    0.99750	    0.00000	 230.0	 3	    1.05000	    0.94500;
	98	 1	 0.0	 0.0	 0.0	 0.0	 1	    0.99750	    0.00000	 230.0	 3	    1.05000	    0.94500;
	99	 1	 13.426	 3.187	 0.0	 0.0	 1	    0.99750	    0.00000	 35.0	 3	    1.05000	    0.94500;
	100	 1	 14.3	 -0.434	 0.0	 0.0	 1	    0.99750	    0.00000	 35.0	 3	    1.05000	    0.94500;
	101	 1	 1.418	 -0.052	 0.0	 0.0	 1	    0.99750	    0.00000	 115.0	 3	    1.05000	    0.94500;
	102	 1	 0.0	 0.0	 0.0	 0.0	 1	    0.99750	    0.00000	 20.0	 3	    1.05000	    0.94500;
	103	 1	 7.868	 2.171	 0.0	 0.0	 1	    0.99750	    0.00000	 35.0	 3	    1.05000	    0.94500;
	104	 1	 8.885	 -3.317	 0.0	 0.0	 1	    0.99750	    0.00000	 35.0	 3	    1.05000	    0.94500;
	105	 1	 29.181	 -1.893	 0.0	 0.0	 1	    0.99750	    0.00000	 35.0	 3	    1.05000	    0.94500;
	106	 1	 11.517	 1.476	 0.0	 0.0	 1	    0.99750	    0.00000	 35.0	 3	    1.05000	    0.94500;
	107	 1	 0.0	 0.0	 0.0	 0.0	 1	    0.99750	    0.00000	 115.0	 3	    1.05000	    0.94500;
	108	 1	 24.14	 4.446	 0.0	 0.0	 1	    0.99750	    0.00000	 35.0	 3	    1.05000	    0.94500;
	109	 1	 17.592	 4.846	 0.0	 0.0	 1	    0.99750	    0.00000	 230.0	 3	    1.05000	    0.94500;
	110	 1	 38.762	 19.145	 0.0	 0.0	 1	    0.99750	    0.00000	 115.0	 3	    1.05000	    0.94500;
	111	 1	 0.0	 0.0	 0.0	 0.0	 1	    0.99750	    0.00000	 500.0	 3	    1.05000	    0.94500;
	112	 1	 29.377	 0.226	 0.0	 0.0	 1	    0.99750	    0.00000	 35.0	 3	    1.05000	    0.94500;
	113	 1	 -1.338	 -0.608	 0.0	 0.0	 1	    0.99750	    0.00000	 7.0	 3	    1.05000	    0.94500;
	114	 1	 8.618	 4.776	 0.0	 0.0	 1	    0.99750	    0.00000	 13.0	 3	    1.05000	    0.94500;
	115	 1	 0.0	 0.0	 0.0	 0.0	 1	    0.99750	    0.00000	 115.0	 3	    1.05000	    0.94500;
	116	 1	 9.394	 -0.842	 0.0	 0.0	 1	    0.99750	    0.00000	 13.0	 3	    1.05000	    0.94500;
	117	 1	 2.302	 4.829	 0.0	 0.0	 1	    0.99750	    0.00000	 13.0	 3	    1.05000	    0.94500;
	118	 1	 0.0	 0.0	 0.0	 0.0	 1	    0.99750	    0.00000	 500.0	 3	    1.05000	    0.94500;
	119	 1	 0.0	 0.0	 0.0	 0.0	 1	    0.99750	    0.00000	 115.0	 3	    1.05000	    0.94500;
	120	 1	 3.354	 1.685	 0.0	 0.0	 1	    0.99750	    0.00000	 4.0	 3	    1.05000	    0.94500;
	121	 1	 0.0	 0.0	 0.0	 0.0	 1	    0.99750	    0.00000	 230.0	 3	    1.05000	    0.94500;
	122	 1	 40.724	 33.826	 0.0	 0.0	 1	    0.99750	    0.00000	 22.0	 3	    1.05000	    0.94500;
	123	 1	 15.059	 -2.128	 0.0	 0.0	 1	    0.99750	    0.00000	 13.0	 3	    1.05000	    0.94500;
	124	 1	 0.0	 0.0	 0.0	 0.0	 1	    0.99750	    0.00000	 230.0	 3	    1.05000	    0.94500;
	125	 1	 0.0	 0.0	 0.0	 24.3999520148	 1	    0.99750	    0.00000	 115.0	 3	    1.05000	    0.94500;
	126	 1	 15.264	 26.54	 0.0	 0.0	 1	    0.99750	    0.00000	 115.0	 3	    1.05000	    0.94500;
	127	 1	 9.456	 0.13	 0.0	 0.0	 1	    0.99750	    0.00000	 13.0	 3	    1.05000	    0.94500;
	128	 1	 0.0	 0.0	 0.0	 0.0	 1	    0.99750	    0.00000	 14.0	 3	    1.05000	    0.94500;
	129	 2	 6.066	 3.378	 0.0	 -8.836	 1	    0.99750	    0.00000	 115.0	 3	    1.05000	    0.94500;
	130	 1	 587.525	 75.909	 0.0	 0.0	 1	    0.99750	    0.00000	 500.0	 3	    1.05000	    0.94500;
	131	 1	 49.485	 6.435	 0.0	 0.0	 1	    0.99750	    0.00000	 22.0	 3	    1.05000	    0.94500;
	132	 1	 0.0	 0.0	 0.0	 0.0	 1	    0.99750	    0.00000	 230.0	 3	    1.05000	    0.94500;
	133	 1	 12.097	 0.703	 0.0	 0.0	 1	    0.99750	    0.00000	 22.0	 3	    1.05000	    0.94500;
	134	 1	 0.0	 0.0	 0.0	 0.0	 1	    0.99750	    0.00000	 115.0	 3	    1.05000	    0.94500;
	135	 1	 9.117	 -0.834	 0.0	 0.0	 1	    0.99750	    0.00000	 35.0	 3	    1.05000	    0.94500;
	136	 1	 0.0	 0.0	 0.0	 0.0	 1	    0.99750	    0.00000	 230.0	 3	    1.05000	    0.94500;
	137	 1	 0.0	 0.0	 0.0	 0.0	 1	    0.99750	    0.00000	 14.0	 3	    1.05000	    0.94500;
	138	 1	 7.895	 -3.769	 0.0	 0.0	 1	    0.99750	    0.00000	 13.0	 3	    1.05000	    0.94500;
	139	 1	 16.557	 -0.287	 0.0	 0.0	 1	    0.99750	    0.00000	 35.0	 3	    1.05000	    0.94500;
	140	 1	 0.0	 0.0	 0.0	 0.0	 1	    0.99750	    0.00000	 20.0	 3	    1.05000	    0.94500;
	141	 1	 0.0	 0.0	 0.0	 0.0	 1	    0.99750	    0.00000	 230.0	 3	    1.05000	    0.94500;
	142	 1	 0.0	 0.0	 0.0	 0.0	 1	    0.99750	    0.00000	 230.0	 3	    1.05000	    0.94500;
	143	 1	 11.811	 8.181	 0.0	 0.0	 1	    0.99750	    0.00000	 4.0	 3	    1.05000	    0.94500;
	144	 1	 6.37	 0.591	 0.0	 0.0	 1	    0.99750	    0.00000	 35.0	 3	    1.05000	    0.94500;
	145	 1	 0.0	 0.0	 0.0	 0.0	 1	    0.99750	    0.00000	 14.0	 3	    1.05000	    0.94500;
	146	 2	 0.0	 0.0	 0.0	 -76.414	 1	    0.99750	    0.00000	 500.0	 3	    1.05000	    0.94500;
	147	 1	 0.0	 0.0	 0.0	 0.0	 1	    0.99750	    0.00000	 230.0	 3	    1.05000	    0.94500;
	148	 1	 0.0	 0.0	 0.0	 0.0	 1	    0.99750	    0.00000	 230.0	 3	    1.05000	    0.94500;
	149	 1	 10.339	 1.72	 0.0	 0.0	 1	    0.99750	    0.00000	 13.0	 3	    1.05000	    0.94500;
	150	 1	 0.0	 0.0	 0.0	 5.02090361698	 1	    0.99750	    0.00000	 115.0	 3	    1.05000	    0.94500;
	151	 1	 0.0	 0.0	 0.0	 0.0	 1	    0.99750	    0.00000	 230.0	 3	    1.05000	    0.94500;
	152	 1	 0.0	 0.0	 0.0	 0.0	 1	    0.99750	    0.00000	 230.0	 3	    1.05000	    0.94500;
	153	 1	 16.977	 -3.335	 0.0	 0.0	 1	    0.99750	    0.00000	 35.0	 3	    1.05000	    0.94500;
	154	 1	 20.501	 0.365	 0.0	 0.0	 1	    0.99750	    0.00000	 35.0	 3	    1.05000	    0.94500;
	155	 1	 0.0	 0.0	 0.0	 0.0	 1	    0.99750	    0.00000	 230.0	 3	    1.05000	    0.94500;
	156	 1	 0.0	 0.0	 0.0	 0.0	 1	    0.99750	    0.00000	 500.0	 3	    1.05000	    0.94500;
	157	 1	 3.979	 -2.084	 0.0	 0.0	 1	    0.99750	    0.00000	 35.0	 3	    1.05000	    0.94500;
	158	 1	 13.06	 1.459	 0.0	 0.0	 1	    0.99750	    0.00000	 35.0	 3	    1.05000	    0.94500;
	159	 1	 3.738	 2.18	 0.0	 0.0	 1	    0.99750	    0.00000	 36.5	 3	    1.05000	    0.94500;
	160	 1	 10.768	 1.659	 0.0	 0.0	 1	    0.99750	    0.00000	 34.5	 3	    1.05000	    0.94500;
	161	 1	 14.131	 2.961	 0.0	 0.0	 1	    0.99750	    0.00000	 35.0	 3	    1.05000	    0.94500;
	162	 1	 8.386	 1.042	 0.0	 0.0	 1	    0.99750	    0.00000	 13.0	 3	    1.05000	    0.94500;
	163	 2	 23.801	 54.442	 0.0	 0.0	 1	    0.99750	    0.00000	 13.0	 3	    1.05000	    0.94500;
	164	 1	 0.0	 0.0	 0.0	 0.0	 1	    0.99750	    0.00000	 115.0	 3	    1.05000	    0.94500;
	165	 1	 0.0	 0.0	 0.0	 0.0	 1	    0.99750	    0.00000	 500.0	 3	    1.05000	    0.94500;
	166	 1	 0.0	 0.0	 0.0	 0.0	 1	    0.99750	    0.00000	 500.0	 3	    1.05000	    0.94500;
	167	 1	 0.0	 0.0	 0.0	 0.0	 1	    0.99750	    0.00000	 230.0	 3	    1.05000	    0.94500;
	168	 1	 0.0	 0.0	 0.0	 0.0	 1	    0.99750	    0.00000	 230.0	 3	    1.05000	    0.94500;
	169	 1	 29.653	 -0.86	 0.0	 0.0	 1	    0.99750	    0.00000	 35.0	 3	    1.05000	    0.94500;
	170	 1	 15.585	 -6.314	 0.0	 0.0	 1	    0.99750	    0.00000	 230.0	 3	    1.05000	    0.94500;
	171	 1	 27.905	 7.833	 0.0	 0.0	 1	    0.99750	    0.00000	 35.0	 3	    1.05000	    0.94500;
	172	 1	 0.0	 0.0	 0.0	 0.0	 1	    0.99750	    0.00000	 115.0	 3	    1.05000	    0.94500;
	173	 1	 0.0	 0.0	 0.0	 0.0	 1	    0.99750	    0.00000	 230.0	 3	    1.05000	    0.94500;
	174	 1	 13.979	 2.345	 0.0	 0.0	 1	    0.99750	    0.00000	 13.0	 3	    1.05000	    0.94500;
	175	 1	 0.0	 0.0	 0.0	 0.0	 1	    0.99750	    0.00000	 230.0	 3	    1.05000	    0.94500;
	176	 1	 10.973	 1.007	 0.0	 0.0	 1	    0.99750	    0.00000	 35.0	 3	    1.05000	    0.94500;
	177	 1	 0.0	 0.0	 0.0	 0.0	 1	    0.99750	    0.00000	 230.0	 3	    1.05000	    0.94500;
	178	 1	 8.689	 5.558	 0.0	 0.0	 1	    0.99750	    0.00000	 35.0	 3	    1.05000	    0.94500;
	179	 1	 12.775	 -0.365	 0.0	 0.0	 1	    0.99750	    0.00000	 35.0	 3	    1.05000	    0.94500;
	180	 1	 19.492	 -1.746	 0.0	 0.0	 1	    0.99750	    0.00000	 35.0	 3	    1.05000	    0.94500;
	181	 1	 0.0	 0.0	 0.0	 0.0	 1	    0.99750	    0.00000	 230.0	 3	    1.05000	    0.94500;
	182	 1	 0.0	 0.0	 0.0	 0.0	 1	    0.99750	    0.00000	 115.0	 3	    1.05000	    0.94500;
	183	 2	 106.321	 10.986	 0.0	 0.0	 1	    0.99750	    0.00000	 230.0	 3	    1.05000	    0.94500;
	184	 1	 0.0	 0.0	 0.0	 0.0	 1	    0.99750	    0.00000	 500.0	 3	    1.05000	    0.94500;
	185	 1	 0.0	 0.0	 0.0	 0.0	 1	    0.99750	    0.00000	 230.0	 3	    1.05000	    0.94500;
	186	 1	 13.765	 1.346	 0.0	 0.0	 1	    0.99750	    0.00000	 35.0	 3	    1.05000	    0.94500;
	187	 1	 0.0	 0.0	 0.0	 0.0	 1	    0.99750	    0.00000	 230.0	 3	    1.05000	    0.94500;
	188	 1	 0.0	 0.0	 0.0	 0.0	 1	    0.99750	    0.00000	 115.0	 3	    1.05000	    0.94500;
	189	 2	 50.573	 0.009	 0.0	 0.0	 1	    0.99750	    0.00000	 35.0	 3	    1.05000	    0.94500;
	190	 1	 5.362	 -2.518	 0.0	 0.0	 1	    0.99750	    0.00000	 13.0	 3	    1.05000	    0.94500;
	191	 1	 7.601	 -1.98	 0.0	 0.0	 1	    0.99750	    0.00000	 13.0	 3	    1.05000	    0.94500;
	192	 1	 4.559	 0.929	 0.0	 0.0	 1	    0.99750	    0.00000	 13.0	 3	    1.05000	    0.94500;
	193	 1	 0.0	 0.0	 0.0	 0.0	 1	    0.99750	    0.00000	 14.0	 3	    1.05000	    0.94500;
	194	 2	 0.0	 0.0	 0.0	 0.0	 1	    0.99750	    0.00000	 13.0	 3	    1.05000	    0.94500;
	195	 1	 11.223	 -1.32	 0.0	 0.0	 1	    0.99750	    0.00000	 35.0	 3	    1.05000	    0.94500;
	196	 1	 5.852	 3.83	 0.0	 0.0	 1	    0.99750	    0.00000	 13.0	 3	    1.05000	    0.94500;
	197	 1	 23.311	 1.277	 0.0	 0.0	 1	    0.99750	    0.00000	 35.0	 3	    1.05000	    0.94500;
	198	 1	 0.0	 0.0	 0.0	 0.0	 1	    0.99750	    0.00000	 115.0	 3	    1.05000	    0.94500;
	199	 1	 0.0	 0.0	 0.0	 0.0	 1	    0.99750	    0.00000	 115.0	 3	    1.05000	    0.94500;
	200	 1	 7.868	 0.087	 0.0	 0.00996251223203	 1	    0.99750	    0.00000	 13.2	 3	    1.05000	    0.94500;
	201	 1	 21.5	 5.601	 0.0	 0.0	 1	    0.99750	    0.00000	 22.0	 3	    1.05000	    0.94500;
	202	 1	 12.927	 1.832	 0.0	 0.0	 1	    0.99750	    0.00000	 35.0	 3	    1.05000	    0.94500;
	203	 1	 1.41	 0.747	 0.0	 0.0	 1	    0.99750	    0.00000	 4.0	 3	    1.05000	    0.94500;
	204	 1	 0.0	 0.0	 0.0	 0.0	 1	    0.99750	    0.00000	 115.0	 3	    1.05000	    0.94500;
	205	 1	 12.213	 -5.914	 0.0	 0.0	 1	    0.99750	    0.00000	 13.0	 3	    1.05000	    0.94500;
	206	 1	 37.93	 20.638	 0.0	 0.0	 1	    0.99750	    0.00000	 115.0	 3	    1.05000	    0.94500;
	207	 1	 11.588	 2.909	 0.0	 0.0	 1	    0.99750	    0.00000	 35.0	 3	    1.05000	    0.94500;
	208	 1	 0.0	 0.0	 0.0	 0.0	 1	    0.99750	    0.00000	 230.0	 3	    1.05000	    0.94500;
	209	 1	 21.972	 10.23	 0.0	 0.0	 1	    0.99750	    0.00000	 230.0	 3	    1.05000	    0.94500;
	210	 1	 6.941	 -0.66	 0.0	 0.0	 1	    0.99750	    0.00000	 35.0	 3	    1.05000	    0.94500;
	211	 1	 0.0	 0.0	 0.0	 0.0	 1	    0.99750	    0.00000	 115.0	 3	    1.05000	    0.94500;
	212	 1	 0.0	 0.0	 0.0	 0.0	 1	    0.99750	    0.00000	 500.0	 3	    1.05000	    0.94500;
	213	 1	 0.0	 0.0	 0.0	 0.0	 1	    0.99750	    0.00000	 115.0	 3	    1.05000	    0.94500;
	214	 1	 4.603	 1.832	 0.0	 0.0	 1	    0.99750	    0.00000	 115.0	 3	    1.05000	    0.94500;
	215	 1	 0.0	 0.0	 0.0	 0.0	 1	    0.99750	    0.00000	 230.0	 3	    1.05000	    0.94500;
	216	 1	 2.355	 4.325	 0.0	 0.0	 1	    0.99750	    0.00000	 35.0	 3	    1.05000	    0.94500;
	217	 1	 18.324	 -3.309	 0.0	 0.0	 1	    0.99750	    0.00000	 35.0	 3	    1.05000	    0.94500;
	218	 1	 0.0	 0.0	 0.0	 0.0	 1	    0.99750	    0.00000	 230.0	 3	    1.05000	    0.94500;
	219	 2	 0.0	 0.0	 0.0	 0.0	 1	    0.99750	    0.00000	 500.0	 3	    1.05000	    0.94500;
	220	 1	 8.27	 -1.059	 0.0	 0.0	 1	    0.99750	    0.00000	 35.0	 3	    1.05000	    0.94500;
	221	 1	 9.653	 4.829	 0.0	 0.0	 1	    0.99750	    0.00000	 13.0	 3	    1.05000	    0.94500;
	222	 1	 15.094	 -0.226	 0.0	 0.0	 1	    0.99750	    0.00000	 35.0	 3	    1.05000	    0.94500;
	223	 1	 0.0	 0.0	 0.0	 0.0	 1	    0.99750	    0.00000	 22.0	 3	    1.05000	    0.94500;
	224	 1	 16.468	 3.222	 0.0	 0.000258921870665	 1	    0.99750	    0.00000	 35.0	 3	    1.05000	    0.94500;
	225	 1	 8.778	 4.655	 0.0	 0.0	 1	    0.99750	    0.00000	 22.0	 3	    1.05000	    0.94500;
	226	 1	 0.0	 0.0	 0.0	 0.0	 1	    0.99750	    0.00000	 230.0	 3	    1.05000	    0.94500;
	227	 2	 0.0	 0.0	 0.0	 0.0	 1	    0.99750	    0.00000	 13.0	 3	    1.05000	    0.94500;
	228	 1	 0.0	 0.0	 0.0	 0.0	 1	    0.99750	    0.00000	 115.0	 3	    1.05000	    0.94500;
	229	 1	 0.0	 0.0	 0.0	 0.0	 1	    0.99750	    0.00000	 115.0	 3	    1.05000	    0.94500;
	230	 1	 41.501	 9.101	 0.0	 0.0	 1	    0.99750	    0.00000	 35.0	 3	    1.05000	    0.94500;
	231	 1	 22.989	 1.607	 0.0	 0.0	 1	    0.99750	    0.00000	 35.0	 3	    1.05000	    0.94500;
	232	 1	 10.643	 -0.373	 0.0	 0.0	 1	    0.99750	    0.00000	 35.0	 3	    1.05000	    0.94500;
	233	 1	 0.0	 0.0	 0.0	 0.0	 1	    0.99750	    0.00000	 115.0	 3	    1.05000	    0.94500;
	234	 1	 15.005	 -4.542	 0.0	 0.0	 1	    0.99750	    0.00000	 35.0	 3	    1.05000	    0.94500;
	235	 1	 5.237	 1.242	 0.0	 0.0	 1	    0.99750	    0.00000	 13.0	 3	    1.05000	    0.94500;
	236	 1	 0.0	 0.0	 0.0	 0.0	 1	    0.99750	    0.00000	 115.0	 3	    1.05000	    0.94500;
	237	 1	 6.79	 2.097	 0.0	 0.0	 1	    0.99750	    0.00000	 115.0	 3	    1.05000	    0.94500;
	238	 2	 26.442	 14.72	 0.0	 0.0	 1	    0.99750	    0.00000	 22.0	 3	    1.05000	    0.94500;
	239	 1	 7.404	 1.581	 0.0	 0.0	 1	    0.99750	    0.00000	 35.0	 3	    1.05000	    0.94500;
	240	 1	 30.073	 17.69	 0.0	 0.0	 1	    0.99750	    0.00000	 35.0	 3	    1.05000	    0.94500;
	241	 1	 1.677	 0.269	 0.0	 0.0	 1	    0.99750	    0.00000	 13.0	 3	    1.05000	    0.94500;
	242	 1	 0.0	 0.0	 0.0	 0.0	 1	    0.99750	    0.00000	 230.0	 3	    1.05000	    0.94500;
	243	 1	 2.596	 -0.434	 0.0	 0.0	 1	    0.99750	    0.00000	 35.0	 3	    1.05000	    0.94500;
	244	 1	 0.0	 0.0	 0.0	 0.0	 1	    0.99750	    0.00000	 115.0	 3	    1.05000	    0.94500;
	245	 1	 45.667	 5.028	 0.0	 0.0	 1	    0.99750	    0.00000	 35.0	 3	    1.05000	    0.94500;
	246	 1	 35.104	 1.016	 0.0	 0.0	 1	    0.99750	    0.00000	 115.0	 3	    1.05000	    0.94500;
	247	 1	 22.124	 3.474	 0.0	 0.0	 1	    0.99750	    0.00000	 35.0	 3	    1.05000	    0.94500;
	248	 1	 5.397	 -3.109	 0.0	 0.0	 1	    0.99750	    0.00000	 13.0	 3	    1.05000	    0.94500;
	249	 1	 15.407	 3.135	 0.0	 0.0	 1	    0.99750	    0.00000	 35.0	 3	    1.05000	    0.94500;
	250	 1	 11.49	 -6.618	 0.0	 0.0	 1	    0.99750	    0.00000	 13.0	 3	    1.05000	    0.94500;
	251	 1	 11.678	 8.945	 0.0	 0.0	 1	    0.99750	    0.00000	 4.0	 3	    1.05000	    0.94500;
	252	 1	 0.0	 0.0	 0.0	 0.0	 1	    0.99750	    0.00000	 115.0	 3	    1.05000	    0.94500;
	253	 1	 6.263	 2.128	 0.0	 0.0	 1	    0.99750	    0.00000	 13.0	 3	    1.05000	    0.94500;
	254	 1	 34.124	 14.992	 0.0	 15.5642046177	 1	    0.99750	    0.00000	 500.0	 3	    1.05000	    0.94500;
	255	 1	 0.0	 0.0	 0.0	 0.0	 1	    0.99750	    0.00000	 230.0	 3	    1.05000	    0.94500;
	256	 1	 6.352	 -9.534	 0.0	 -10.593	 1	    0.99750	    0.00000	 115.0	 3	    1.05000	    0.94500;
	257	 1	 19.564	 -3.752	 0.0	 0.0	 1	    0.99750	    0.00000	 35.0	 3	    1.05000	    0.94500;
	258	 1	 8.1	 0.912	 0.0	 0.0	 1	    0.99750	    0.00000	 13.0	 3	    1.05000	    0.94500;
	259	 1	 5.362	 0.339	 0.0	 0.0	 1	    0.99750	    0.00000	 13.0	 3	    1.05000	    0.94500;
	260	 1	 14.184	 3.17	 0.0	 0.0	 1	    0.99750	    0.00000	 35.0	 3	    1.05000	    0.94500;
	261	 1	 0.0	 0.0	 0.0	 0.0	 1	    0.99750	    0.00000	 115.0	 3	    1.05000	    0.94500;
	262	 1	 0.0	 0.0	 0.0	 0.0	 1	    0.99750	    0.00000	 230.0	 3	    1.05000	    0.94500;
	263	 1	 0.0	 0.0	 0.0	 0.0	 1	    0.99750	    0.00000	 18.0	 3	    1.05000	    0.94500;
	264	 1	 0.0	 0.0	 0.0	 0.0	 1	    0.99750	    0.00000	 230.0	 3	    1.05000	    0.94500;
	265	 1	 0.0	 0.0	 0.0	 0.0	 1	    0.99750	    0.00000	 500.0	 3	    1.05000	    0.94500;
	266	 1	 67.307	 21.559	 0.0	 0.0	 1	    0.99750	    0.00000	 230.0	 3	    1.05000	    0.94500;
	267	 1	 7.404	 1.537	 0.0	 0.0	 1	    0.99750	    0.00000	 35.0	 3	    1.05000	    0.94500;
	268	 1	 0.0	 0.0	 0.0	 0.0	 1	    0.99750	    0.00000	 230.0	 3	    1.05000	    0.94500;
	269	 1	 0.0	 0.0	 0.0	 111.031344834	 1	    0.99750	    0.00000	 230.0	 3	    1.05000	    0.94500;
	270	 1	 7.842	 -2.77	 0.0	 0.0	 1	    0.99750	    0.00000	 35.0	 3	    1.05000	    0.94500;
	271	 1	 0.0	 0.0	 0.0	 0.0	 1	    0.99750	    0.00000	 230.0	 3	    1.05000	    0.94500;
	272	 1	 86.147	 21.159	 0.0	 0.0	 1	    0.99750	    0.00000	 115.0	 3	    1.05000	    0.94500;
	273	 1	 9.251	 5.115	 0.0	 0.0	 1	    0.99750	    0.00000	 4.0	 3	    1.05000	    0.94500;
	274	 1	 15.005	 -4.533	 0.0	 0.0	 1	    0.99750	    0.00000	 35.0	 3	    1.05000	    0.94500;
	275	 1	 24.872	 0.695	 0.0	 0.0	 1	    0.99750	    0.00000	 13.2	 3	    1.05000	    0.94500;
	276	 1	 14.077	 -3.335	 0.0	 0.0	 1	    0.99750	    0.00000	 35.0	 3	    1.05000	    0.94500;
	277	 1	 0.0	 0.0	 0.0	 0.0	 1	    0.99750	    0.00000	 230.0	 3	    1.05000	    0.94500;
	278	 1	 13.15	 2.38	 0.0	 0.0	 1	    0.99750	    0.00000	 35.0	 3	    1.05000	    0.94500;
	279	 1	 0.0	 0.0	 0.0	 0.0	 1	    0.99750	    0.00000	 115.0	 3	    1.05000	    0.94500;
	280	 1	 0.0	 0.0	 0.0	 0.0	 1	    0.99750	    0.00000	 230.0	 3	    1.05000	    0.94500;
	281	 1	 81.992	 96.078	 0.0	 0.0	 1	    0.99750	    0.00000	 230.0	 3	    1.05000	    0.94500;
	282	 2	 1.142	 0.886	 0.0	 0.0	 1	    0.99750	    0.00000	 13.0	 3	    1.05000	    0.94500;
	283	 1	 22.052	 14.52	 0.0	 0.0	 1	    0.99750	    0.00000	 115.0	 3	    1.05000	    0.94500;
	284	 1	 0.0	 0.0	 0.0	 0.0	 1	    0.99750	    0.00000	 230.0	 3	    1.05000	    0.94500;
	285	 1	 0.0	 0.0	 0.0	 163.9781935	 1	    0.99750	    0.00000	 230.0	 3	    1.05000	    0.94500;
	286	 1	 16.477	 1.416	 0.0	 0.0	 1	    0.99750	    0.00000	 22.0	 3	    1.05000	    0.94500;
	287	 1	 0.0	 0.0	 0.0	 0.0	 1	    0.99750	    0.00000	 115.0	 3	    1.05000	    0.94500;
	288	 1	 25.354	 2.944	 0.0	 0.0	 1	    0.99750	    0.00000	 35.0	 3	    1.05000	    0.94500;
	289	 1	 16.807	 -1.12	 0.0	 0.0	 1	    0.99750	    0.00000	 35.0	 3	    1.05000	    0.94500;
	290	 1	 4.104	 1.841	 0.0	 0.0	 1	    0.99750	    0.00000	 4.0	 3	    1.05000	    0.94500;
	291	 1	 1.195	 5.497	 0.0	 0.0	 1	    0.99750	    0.00000	 35.0	 3	    1.05000	    0.94500;
	292	 1	 13.426	 1.112	 0.0	 0.0	 1	    0.99750	    0.00000	 35.0	 3	    1.05000	    0.94500;
	293	 1	 27.7	 -6.287	 0.0	 0.0	 1	    0.99750	    0.00000	 35.0	 3	    1.05000	    0.94500;
	294	 1	 0.0	 0.0	 0.0	 0.0	 1	    0.99750	    0.00000	 115.0	 3	    1.05000	    0.94500;
	295	 1	 0.0	 0.0	 0.0	 0.0	 1	    0.99750	    0.00000	 115.0	 3	    1.05000	    0.94500;
	296	 1	 24.176	 0.156	 0.0	 0.0	 1	    0.99750	    0.00000	 35.0	 3	    1.05000	    0.94500;
	297	 1	 14.229	 3.343	 0.0	 0.0	 1	    0.99750	    0.00000	 35.0	 3	    1.05000	    0.94500;
	298	 1	 0.0	 0.0	 0.0	 0.0	 1	    0.99750	    0.00000	 18.0	 3	    1.05000	    0.94500;
	299	 1	 4.452	 2.371	 0.0	 0.0	 1	    0.99750	    0.00000	 13.0	 3	    1.05000	    0.94500;
	300	 1	 0.0	 0.0	 0.0	 0.0	 1	    0.99750	    0.00000	 115.0	 3	    1.05000	    0.94500;
	301	 1	 21.598	 2.501	 0.0	 0.0	 1	    0.99750	    0.00000	 35.0	 3	    1.05000	    0.94500;
	302	 1	 0.0	 0.0	 0.0	 0.0	 1	    0.99750	    0.00000	 230.0	 3	    1.05000	    0.94500;
	303	 1	 27.985	 -2.275	 0.0	 0.0	 1	    0.99750	    0.00000	 35.0	 3	    1.05000	    0.94500;
	304	 1	 13.872	 5.202	 0.0	 0.000191505260198	 1	    0.99750	    0.00000	 13.0	 3	    1.05000	    0.94500;
	305	 1	 8.109	 -1.207	 0.0	 0.0	 1	    0.99750	    0.00000	 13.0	 3	    1.05000	    0.94500;
	306	 1	 0.0	 0.0	 0.0	 0.0	 1	    0.99750	    0.00000	 500.0	 3	    1.05000	    0.94500;
	307	 1	 0.0	 0.0	 0.0	 0.0	 1	    0.99750	    0.00000	 115.0	 3	    1.05000	    0.94500;
	308	 1	 1.757	 1.815	 0.0	 0.0	 1	    0.99750	    0.00000	 13.0	 3	    1.05000	    0.94500;
	309	 1	 0.0	 0.0	 0.0	 0.0	 1	    0.99750	    0.00000	 230.0	 3	    1.05000	    0.94500;
	310	 1	 0.0	 0.0	 0.0	 0.0	 1	    0.99750	    0.00000	 230.0	 3	    1.05000	    0.94500;
	311	 1	 7.574	 -2.822	 0.0	 0.0	 1	    0.99750	    0.00000	 13.0	 3	    1.05000	    0.94500;
	312	 1	 27.985	 3.769	 0.0	 0.0	 1	    0.99750	    0.00000	 35.0	 3	    1.05000	    0.94500;