%%%%%%%%%%%%%%%%%%%%%%%%%%%%%%%%%%%%%%%%%%%%%%%%%%%%%%%%%%%%%%%%%%%%%%%%%%%
%%%%                                                                  %%%%%
%%%%    IEEE PES Power Grid Library - Optimal Power Flow - v17.07     %%%%%
%%%%          (https://github.com/power-grid-lib/pglib-opf)           %%%%%
%%%%             Benchmark Group - Small Angle Difference             %%%%%
%%%%                         27 - June - 2017                         %%%%%
%%%%                                                                  %%%%%
%%%%%%%%%%%%%%%%%%%%%%%%%%%%%%%%%%%%%%%%%%%%%%%%%%%%%%%%%%%%%%%%%%%%%%%%%%%
function mpc = pglib_opf_case200_pserc__sad
mpc.version = '2';
mpc.baseMVA = 100.0;

%% bus data
%	bus_i	type	Pd	Qd	Gs	Bs	area	Vm	Va	baseKV	zone	Vmax	Vmin
mpc.bus = [
	1	 1	 0.0	 0.0	 0.0	 0.0	 1	    1.06460	   -8.02768	 115.0	 1	    1.10000	    0.90000;
	2	 1	 10.95	 3.12	 0.0	 0.0	 1	    1.06444	   -8.04511	 115.0	 1	    1.10000	    0.90000;
	3	 1	 0.0	 0.0	 0.0	 0.0	 1	    1.07526	   -9.48036	 115.0	 1	    1.10000	    0.90000;
	4	 1	 2.72	 0.77	 0.0	 0.0	 1	    1.07522	   -9.48459	 115.0	 1	    1.10000	    0.90000;
	5	 1	 0.0	 0.0	 0.0	 0.0	 1	    1.08830	   -7.36902	 115.0	 1	    1.10000	    0.90000;
	6	 1	 12.5	 3.56	 0.0	 0.0	 1	    1.08811	   -7.38801	 115.0	 1	    1.10000	    0.90000;
	7	 1	 0.0	 0.0	 0.0	 0.0	 1	    1.05596	   -9.02277	 115.0	 1	    1.10000	    0.90000;
	8	 1	 35.2	 10.03	 0.0	 0.0	 1	    1.05544	   -9.07721	 115.0	 1	    1.10000	    0.90000;
	9	 1	 0.0	 0.0	 0.0	 0.0	 1	    1.05998	   -8.53145	 115.0	 1	    1.10000	    0.90000;
	10	 1	 63.29	 18.04	 0.0	 0.0	 1	    1.05895	   -8.65422	 115.0	 1	    1.10000	    0.90000;
	11	 1	 0.0	 0.0	 0.0	 0.0	 1	    1.09886	   -6.74198	 115.0	 1	    1.10000	    0.90000;
	12	 1	 0.49	 0.14	 0.0	 0.0	 1	    1.09886	   -6.74277	 115.0	 1	    1.10000	    0.90000;
	13	 1	 4.04	 1.15	 0.0	 0.0	 1	    1.09880	   -6.74856	 115.0	 1	    1.10000	    0.90000;
	14	 1	 0.0	 0.0	 0.0	 0.0	 1	    1.09706	   -6.05509	 230.0	 1	    1.10000	    0.90000;
	15	 1	 0.0	 0.0	 0.0	 30.0	 1	    1.10000	   -6.92647	 115.0	 1	    1.10000	    0.90000;
	16	 1	 71.7	 20.44	 0.0	 0.0	 1	    1.09904	   -7.02985	 115.0	 1	    1.10000	    0.90000;
	17	 1	 0.0	 0.0	 0.0	 0.0	 1	    1.06832	   -9.85778	 115.0	 1	    1.10000	    0.90000;
	18	 1	 1.14	 0.33	 0.0	 0.0	 1	    1.06830	   -9.85995	 115.0	 1	    1.10000	    0.90000;
	19	 1	 1.23	 0.35	 0.0	 0.0	 1	    1.06830	   -9.85959	 115.0	 1	    1.10000	    0.90000;
	20	 1	 1.81	 0.52	 0.0	 0.0	 1	    1.06829	   -9.86065	 115.0	 1	    1.10000	    0.90000;
	21	 1	 7.38	 2.1	 0.0	 0.0	 1	    1.06820	   -9.87173	 115.0	 1	    1.10000	    0.90000;
	22	 1	 0.0	 0.0	 0.0	 0.0	 1	    1.09796	   -6.62099	 115.0	 1	    1.10000	    0.90000;
	23	 1	 2.26	 0.64	 0.0	 0.0	 1	    1.09793	   -6.62427	 115.0	 1	    1.10000	    0.90000;
	24	 1	 3.84	 1.09	 0.0	 0.0	 1	    1.09791	   -6.62624	 115.0	 1	    1.10000	    0.90000;
	25	 1	 0.0	 0.0	 0.0	 0.0	 1	    1.09195	   -7.73583	 115.0	 1	    1.10000	    0.90000;
	26	 1	 2.13	 0.61	 0.0	 0.0	 1	    1.09192	   -7.73880	 115.0	 1	    1.10000	    0.90000;
	27	 1	 0.0	 0.0	 0.0	 0.0	 1	    1.09881	   -6.70752	 115.0	 1	    1.10000	    0.90000;
	28	 1	 3.74	 1.07	 0.0	 0.0	 1	    1.09875	   -6.71426	 115.0	 1	    1.10000	    0.90000;
	29	 1	 0.0	 0.0	 0.0	 0.0	 1	    1.06419	   -7.89729	 115.0	 1	    1.10000	    0.90000;
	30	 1	 87.62	 24.97	 0.0	 0.0	 1	    1.06288	   -8.02748	 115.0	 1	    1.10000	    0.90000;
	31	 1	 0.0	 0.0	 0.0	 0.0	 1	    1.06713	   -8.60251	 115.0	 1	    1.10000	    0.90000;
	32	 1	 0.7	 0.2	 0.0	 0.0	 1	    1.06712	   -8.60381	 115.0	 1	    1.10000	    0.90000;
	33	 1	 8.82	 2.51	 0.0	 0.0	 1	    1.06700	   -8.61800	 115.0	 1	    1.10000	    0.90000;
	34	 1	 0.0	 0.0	 0.0	 0.0	 1	    1.08157	   -8.04321	 115.0	 1	    1.10000	    0.90000;
	35	 1	 33.26	 9.48	 0.0	 0.0	 1	    1.08107	   -8.10042	 115.0	 1	    1.10000	    0.90000;
	36	 1	 0.0	 0.0	 0.0	 0.0	 1	    1.07432	   -8.91177	 115.0	 1	    1.10000	    0.90000;
	37	 1	 4.89	 1.39	 0.0	 0.0	 1	    1.07425	   -8.91947	 115.0	 1	    1.10000	    0.90000;
	38	 1	 40.81	 11.63	 0.0	 0.0	 1	    1.07369	   -8.97907	 115.0	 1	    1.10000	    0.90000;
	39	 1	 11.86	 3.38	 0.0	 0.0	 1	    1.06589	  -11.23449	 115.0	 1	    1.10000	    0.90000;
	40	 1	 3.28	 0.93	 0.0	 0.0	 1	    1.06585	  -11.23939	 115.0	 1	    1.10000	    0.90000;
	41	 1	 61.87	 17.63	 0.0	 0.0	 1	    1.08661	  -10.76043	 115.0	 1	    1.10000	    0.90000;
	42	 1	 17.01	 4.85	 0.0	 0.0	 1	    1.07394	  -11.25518	 115.0	 1	    1.10000	    0.90000;
	43	 1	 3.09	 0.88	 0.0	 0.0	 1	    1.06143	   -8.53657	 115.0	 1	    1.10000	    0.90000;
	44	 1	 6.65	 1.89	 0.0	 0.0	 1	    1.07153	  -10.84811	 115.0	 1	    1.10000	    0.90000;
	45	 1	 0.0	 0.0	 0.0	 0.0	 1	    1.09185	   -3.43573	 230.0	 1	    1.10000	    0.90000;
	46	 1	 8.68	 2.47	 0.0	 0.0	 1	    1.08994	   -4.32783	 115.0	 1	    1.10000	    0.90000;
	47	 1	 2.47	 0.71	 0.0	 0.0	 1	    1.09393	   -6.12144	 115.0	 1	    1.10000	    0.90000;
	48	 1	 2.87	 0.82	 0.0	 0.0	 1	    1.08584	   -7.72746	 115.0	 1	    1.10000	    0.90000;
	49	 2	 0.0	 0.0	 0.0	 0.0	 1	    1.09698	   -6.59568	 13.8	 1	    1.10000	    0.90000;
	50	 2	 0.0	 0.0	 0.0	 0.0	 1	    1.09441	   -6.86678	 13.8	 1	    1.10000	    0.90000;
	51	 2	 0.0	 0.0	 0.0	 0.0	 1	    1.09845	   -6.42156	 13.8	 1	    1.10000	    0.90000;
	52	 2	 0.0	 0.0	 0.0	 0.0	 1	    1.09396	   -6.91963	 13.8	 1	    1.10000	    0.90000;
	53	 2	 0.0	 0.0	 0.0	 0.0	 1	    1.10000	   -5.24429	 13.8	 1	    1.10000	    0.90000;
	54	 1	 4.27	 1.22	 0.0	 0.0	 1	    1.09055	   -6.62452	 115.0	 1	    1.10000	    0.90000;
	55	 1	 0.0	 0.0	 0.0	 0.0	 1	    1.08935	   -3.98229	 230.0	 1	    1.10000	    0.90000;
	56	 1	 1.79	 0.51	 0.0	 0.0	 1	    1.08812	   -4.41104	 115.0	 1	    1.10000	    0.90000;
	57	 1	 4.52	 1.29	 0.0	 0.0	 1	    1.07141	  -10.39103	 115.0	 1	    1.10000	    0.90000;
	58	 1	 5.79	 1.65	 0.0	 0.0	 1	    1.08171	   -8.62320	 115.0	 1	    1.10000	    0.90000;
	59	 1	 7.02	 2.0	 0.0	 0.0	 1	    1.05975	   -9.71993	 115.0	 1	    1.10000	    0.90000;
	60	 1	 5.63	 1.6	 0.0	 0.0	 1	    1.07813	   -7.08425	 115.0	 1	    1.10000	    0.90000;
	61	 1	 28.14	 8.02	 0.0	 0.0	 1	    1.08638	   -4.71880	 115.0	 1	    1.10000	    0.90000;
	62	 1	 34.29	 9.77	 0.0	 0.0	 1	    1.06843	  -11.64527	 115.0	 1	    1.10000	    0.90000;
	63	 1	 12.79	 3.64	 0.0	 0.0	 1	    1.09346	   -7.49264	 115.0	 1	    1.10000	    0.90000;
	64	 1	 0.0	 0.0	 0.0	 0.0	 1	    1.09375	   -6.59994	 115.0	 1	    1.10000	    0.90000;
	65	 2	 0.0	 0.0	 0.0	 0.0	 1	    1.10000	   -3.00905	 13.8	 1	    1.10000	    0.90000;
	66	 1	 0.0	 0.0	 0.0	 0.0	 1	    1.09767	   -5.54615	 115.0	 1	    1.10000	    0.90000;
	67	 2	 0.0	 0.0	 0.0	 0.0	 1	    1.10000	   -5.23420	 13.8	 1	    1.10000	    0.90000;
	68	 2	 0.0	 0.0	 0.0	 0.0	 1	    1.10000	   -2.03667	 13.8	 1	    1.10000	    0.90000;
	69	 2	 0.0	 0.0	 0.0	 0.0	 1	    1.10000	   -4.29113	 13.8	 1	    1.10000	    0.90000;
	70	 2	 0.0	 0.0	 0.0	 0.0	 1	    1.10000	   -2.90592	 13.8	 1	    1.10000	    0.90000;
	71	 2	 0.0	 0.0	 0.0	 0.0	 1	    1.10000	   -4.46941	 13.8	 1	    1.10000	    0.90000;
	72	 2	 0.0	 0.0	 0.0	 0.0	 1	    1.10000	   -4.56170	 13.8	 1	    1.10000	    0.90000;
	73	 2	 0.0	 0.0	 0.0	 0.0	 1	    1.10000	   -3.60883	 13.8	 1	    1.10000	    0.90000;
	74	 1	 29.51	 8.41	 0.0	 0.0	 1	    1.07601	   -8.78740	 115.0	 1	    1.10000	    0.90000;
	75	 1	 5.34	 1.52	 0.0	 0.0	 1	    1.07891	   -6.62256	 115.0	 1	    1.10000	    0.90000;
	76	 2	 0.0	 0.0	 0.0	 0.0	 1	    1.09393	   -6.20375	 13.8	 1	    1.10000	    0.90000;
	77	 2	 0.0	 0.0	 0.0	 0.0	 1	    1.10000	   -5.90066	 13.8	 1	    1.10000	    0.90000;
	78	 2	 0.0	 0.0	 0.0	 0.0	 1	    1.07891	   -6.62256	 13.8	 1	    1.10000	    0.90000;
	79	 2	 0.0	 0.0	 0.0	 0.0	 1	    1.07891	   -6.62256	 13.8	 1	    1.10000	    0.90000;
	80	 1	 2.38	 0.68	 0.0	 0.0	 1	    1.08837	   -9.70897	 115.0	 1	    1.10000	    0.90000;
	81	 1	 0.0	 0.0	 0.0	 0.0	 1	    1.08635	   -5.80530	 230.0	 1	    1.10000	    0.90000;
	82	 1	 11.96	 3.41	 0.0	 0.0	 1	    1.08193	   -7.00735	 115.0	 1	    1.10000	    0.90000;
	83	 1	 4.29	 1.22	 0.0	 0.0	 1	    1.07933	   -7.71563	 115.0	 1	    1.10000	    0.90000;
	84	 1	 5.56	 1.59	 0.0	 0.0	 1	    1.06442	   -8.13284	 115.0	 1	    1.10000	    0.90000;
	85	 1	 7.74	 2.21	 0.0	 0.0	 1	    1.06575	  -10.96283	 115.0	 1	    1.10000	    0.90000;
	86	 1	 12.23	 3.49	 0.0	 0.0	 1	    1.05776	   -8.77768	 115.0	 1	    1.10000	    0.90000;
	87	 1	 0.0	 0.0	 0.0	 0.0	 1	    1.08832	   -8.24641	 230.0	 1	    1.10000	    0.90000;
	88	 1	 79.66	 22.7	 0.0	 0.0	 1	    1.08345	  -10.00280	 115.0	 1	    1.10000	    0.90000;
	89	 1	 86.04	 24.52	 0.0	 0.0	 1	    1.08397	   -7.98471	 115.0	 1	    1.10000	    0.90000;
	90	 2	 0.0	 0.0	 0.0	 0.0	 1	    1.10000	   -4.49948	 13.8	 1	    1.10000	    0.90000;
	91	 2	 0.0	 0.0	 0.0	 0.0	 1	    1.09657	   -6.80156	 13.8	 1	    1.10000	    0.90000;
	92	 2	 0.0	 0.0	 0.0	 0.0	 1	    1.08397	   -7.98471	 13.8	 1	    1.10000	    0.90000;
	93	 1	 4.91	 1.4	 0.0	 0.0	 1	    1.09862	   -7.14711	 115.0	 1	    1.10000	    0.90000;
	94	 2	 0.0	 0.0	 0.0	 0.0	 1	    1.10000	   -4.75292	 13.8	 1	    1.10000	    0.90000;
	95	 1	 4.11	 1.17	 0.0	 30.0	 1	    1.09256	   -8.42482	 115.0	 1	    1.10000	    0.90000;
	96	 1	 4.05	 1.15	 0.0	 0.0	 1	    1.08812	   -6.22149	 115.0	 1	    1.10000	    0.90000;
	97	 1	 10.87	 3.1	 0.0	 0.0	 1	    1.07263	   -8.71577	 115.0	 1	    1.10000	    0.90000;
	98	 1	 0.0	 0.0	 0.0	 0.0	 1	    1.07579	   -5.88035	 230.0	 1	    1.10000	    0.90000;
	99	 1	 18.04	 5.14	 0.0	 0.0	 1	    1.06932	   -7.09145	 115.0	 1	    1.10000	    0.90000;
	100	 1	 60.35	 17.2	 0.0	 80.0	 1	    1.09659	  -10.35040	 115.0	 1	    1.10000	    0.90000;
	101	 1	 0.77	 0.22	 0.0	 0.0	 1	    1.05920	   -8.63519	 115.0	 1	    1.10000	    0.90000;
	102	 1	 0.0	 0.0	 0.0	 0.0	 1	    1.09072	   -3.55968	 230.0	 1	    1.10000	    0.90000;
	103	 1	 0.0	 0.0	 0.0	 0.0	 1	    1.08776	   -4.48729	 115.0	 1	    1.10000	    0.90000;
	104	 2	 0.0	 0.0	 0.0	 0.0	 1	    1.10000	    0.03121	 13.8	 1	    1.10000	    0.90000;
	105	 2	 0.0	 0.0	 0.0	 0.0	 1	    1.10000	    0.03121	 13.8	 1	    1.10000	    0.90000;
	106	 1	 2.82	 0.8	 0.0	 0.0	 1	    1.08349	   -5.25652	 115.0	 1	    1.10000	    0.90000;
	107	 1	 71.96	 20.51	 0.0	 0.0	 1	    1.06117	   -8.49809	 115.0	 1	    1.10000	    0.90000;
	108	 1	 13.97	 3.98	 0.0	 0.0	 1	    1.07445	   -7.28668	 115.0	 1	    1.10000	    0.90000;
	109	 1	 8.26	 2.35	 0.0	 0.0	 1	    1.07233	   -8.81118	 115.0	 1	    1.10000	    0.90000;
	110	 1	 16.1	 4.59	 0.0	 0.0	 1	    1.05932	   -8.62078	 115.0	 1	    1.10000	    0.90000;
	111	 1	 14.23	 4.05	 0.0	 0.0	 1	    1.08207	  -10.93218	 115.0	 1	    1.10000	    0.90000;
	112	 1	 0.0	 0.0	 0.0	 0.0	 1	    1.08564	   -4.27391	 230.0	 1	    1.10000	    0.90000;
	113	 1	 0.0	 0.0	 0.0	 0.0	 1	    1.06776	   -7.65215	 115.0	 1	    1.10000	    0.90000;
	114	 2	 0.0	 0.0	 0.0	 0.0	 1	    1.08799	   -3.92648	 13.8	 1	    1.10000	    0.90000;
	115	 2	 0.0	 0.0	 0.0	 0.0	 1	    1.10000	   -0.68302	 13.8	 1	    1.10000	    0.90000;
	116	 1	 0.0	 0.0	 0.0	 0.0	 1	    1.07532	   -5.92452	 230.0	 1	    1.10000	    0.90000;
	117	 1	 50.54	 14.4	 0.0	 0.0	 1	    1.06507	   -7.90895	 115.0	 1	    1.10000	    0.90000;
	118	 1	 5.84	 1.66	 0.0	 0.0	 1	    1.06877	   -7.61010	 115.0	 1	    1.10000	    0.90000;
	119	 1	 26.03	 7.42	 0.0	 0.0	 1	    1.05740	   -9.66095	 115.0	 1	    1.10000	    0.90000;
	120	 1	 2.88	 0.82	 0.0	 0.0	 1	    1.06681	  -10.54540	 115.0	 1	    1.10000	    0.90000;
	121	 1	 0.0	 0.0	 0.0	 0.0	 1	    1.09582	   -3.15358	 230.0	 1	    1.10000	    0.90000;
	122	 1	 21.14	 6.02	 0.0	 0.0	 1	    1.09101	   -4.71124	 115.0	 1	    1.10000	    0.90000;
	123	 1	 0.0	 0.0	 0.0	 0.0	 1	    1.08531	   -4.60235	 230.0	 1	    1.10000	    0.90000;
	124	 1	 0.0	 0.0	 0.0	 0.0	 1	    1.07299	   -6.83221	 115.0	 1	    1.10000	    0.90000;
	125	 2	 0.0	 0.0	 0.0	 0.0	 1	    1.10000	   -1.01146	 13.8	 1	    1.10000	    0.90000;
	126	 2	 0.0	 0.0	 0.0	 0.0	 1	    1.10000	   -1.01146	 13.8	 1	    1.10000	    0.90000;
	127	 2	 0.0	 0.0	 0.0	 0.0	 1	    1.10000	   -2.64754	 13.8	 1	    1.10000	    0.90000;
	128	 1	 0.0	 0.0	 0.0	 0.0	 1	    1.08523	   -4.38669	 230.0	 1	    1.10000	    0.90000;
	129	 1	 105.76	 30.14	 0.0	 0.0	 1	    1.06622	   -7.70591	 115.0	 1	    1.10000	    0.90000;
	130	 1	 6.02	 1.72	 0.0	 0.0	 1	    1.07992	   -5.87507	 115.0	 1	    1.10000	    0.90000;
	131	 1	 44.86	 12.79	 0.0	 0.0	 1	    1.06011	   -8.56350	 115.0	 1	    1.10000	    0.90000;
	132	 1	 39.98	 11.39	 0.0	 0.0	 1	    1.05718	   -9.01388	 115.0	 1	    1.10000	    0.90000;
	133	 1	 0.0	 0.0	 0.0	 0.0	 1	    1.08728	   -4.42718	 230.0	 1	    1.10000	    0.90000;
	134	 1	 0.0	 0.0	 0.0	 0.0	 1	    1.08343	   -5.63251	 115.0	 1	    1.10000	    0.90000;
	135	 2	 0.0	 0.0	 0.0	 0.0	 1	    1.10000	   -1.45979	 13.8	 1	    1.10000	    0.90000;
	136	 2	 0.0	 0.0	 0.0	 0.0	 1	    1.10000	   -1.99459	 13.8	 1	    1.10000	    0.90000;
	137	 1	 1.86	 0.53	 0.0	 0.0	 1	    1.07810	   -8.83653	 115.0	 1	    1.10000	    0.90000;
	138	 1	 3.29	 0.94	 0.0	 0.0	 1	    1.07525	   -8.12091	 115.0	 1	    1.10000	    0.90000;
	139	 1	 10.14	 2.89	 0.0	 0.0	 1	    1.06275	   -9.55032	 115.0	 1	    1.10000	    0.90000;
	140	 1	 12.18	 3.47	 0.0	 0.0	 1	    1.07116	   -7.08466	 115.0	 1	    1.10000	    0.90000;
	141	 1	 2.11	 0.6	 0.0	 0.0	 1	    1.05925	   -8.63634	 115.0	 1	    1.10000	    0.90000;
	142	 1	 55.26	 15.75	 0.0	 0.0	 1	    1.05765	   -8.69778	 115.0	 1	    1.10000	    0.90000;
	143	 1	 43.22	 12.32	 0.0	 0.0	 1	    1.07827	   -8.89466	 115.0	 1	    1.10000	    0.90000;
	144	 1	 13.43	 3.83	 0.0	 0.0	 1	    1.06973	   -7.47391	 115.0	 1	    1.10000	    0.90000;
	145	 1	 28.32	 8.07	 0.0	 0.0	 1	    1.07555	  -11.02025	 115.0	 1	    1.10000	    0.90000;
	146	 1	 0.0	 0.0	 0.0	 0.0	 1	    1.08359	   -7.02474	 115.0	 1	    1.10000	    0.90000;
	147	 2	 0.0	 0.0	 0.0	 0.0	 1	    1.10000	   -3.43385	 13.8	 1	    1.10000	    0.90000;
	148	 1	 47.49	 13.53	 0.0	 0.0	 1	    1.05175	   -9.55543	 115.0	 1	    1.10000	    0.90000;
	149	 1	 0.0	 0.0	 0.0	 0.0	 1	    1.09136	   -7.66435	 230.0	 1	    1.10000	    0.90000;
	150	 1	 0.0	 0.0	 0.0	 0.0	 1	    1.08838	   -9.30542	 115.0	 1	    1.10000	    0.90000;
	151	 2	 0.0	 0.0	 0.0	 0.0	 1	    1.09680	   -6.05637	 13.8	 1	    1.10000	    0.90000;
	152	 2	 0.0	 0.0	 0.0	 0.0	 1	    1.10000	   -4.07346	 13.8	 1	    1.10000	    0.90000;
	153	 2	 0.0	 0.0	 0.0	 0.0	 1	    1.10000	   -4.07346	 13.8	 1	    1.10000	    0.90000;
	154	 2	 0.0	 0.0	 0.0	 0.0	 1	    1.09997	   -4.63863	 13.8	 1	    1.10000	    0.90000;
	155	 2	 0.0	 0.0	 0.0	 0.0	 1	    1.09985	   -4.72994	 13.8	 1	    1.10000	    0.90000;
	156	 1	 0.0	 0.0	 0.0	 0.0	 1	    1.08551	   -4.64790	 230.0	 1	    1.10000	    0.90000;
	157	 1	 21.88	 6.24	 0.0	 0.0	 1	    1.08244	   -5.64562	 115.0	 1	    1.10000	    0.90000;
	158	 1	 14.36	 4.09	 0.0	 0.0	 1	    1.09767	   -6.26764	 115.0	 1	    1.10000	    0.90000;
	159	 1	 2.22	 0.63	 0.0	 0.0	 1	    1.06863	  -11.08583	 115.0	 1	    1.10000	    0.90000;
	160	 1	 0.0	 0.0	 0.0	 0.0	 1	    1.07513	  -11.27028	 115.0	 1	    1.10000	    0.90000;
	161	 2	 0.0	 0.0	 0.0	 0.0	 1	    1.07513	  -11.27028	 13.8	 1	    1.10000	    0.90000;
	162	 1	 2.15	 0.61	 0.0	 0.0	 1	    1.06847	   -7.65005	 115.0	 1	    1.10000	    0.90000;
	163	 1	 73.93	 21.07	 0.0	 0.0	 1	    1.08396	  -10.72293	 115.0	 1	    1.10000	    0.90000;
	164	 2	 0.0	 0.0	 0.0	 0.0	 1	    1.08396	  -10.72293	 13.8	 1	    1.10000	    0.90000;
	165	 2	 0.0	 0.0	 0.0	 0.0	 1	    1.08396	  -10.72293	 13.8	 1	    1.10000	    0.90000;
	166	 2	 0.0	 0.0	 0.0	 0.0	 1	    1.08396	  -10.72293	 13.8	 1	    1.10000	    0.90000;
	167	 2	 0.0	 0.0	 0.0	 0.0	 1	    1.09333	   -9.85421	 13.8	 1	    1.10000	    0.90000;
	168	 2	 0.0	 0.0	 0.0	 0.0	 1	    1.08396	  -10.72293	 13.8	 1	    1.10000	    0.90000;
	169	 2	 0.0	 0.0	 0.0	 0.0	 1	    1.08396	  -10.72293	 13.8	 1	    1.10000	    0.90000;
	170	 2	 0.0	 0.0	 0.0	 0.0	 1	    1.10000	   -9.61213	 13.8	 1	    1.10000	    0.90000;
	171	 1	 12.49	 3.56	 0.0	 0.0	 1	    1.07355	   -8.65272	 115.0	 1	    1.10000	    0.90000;
	172	 1	 8.68	 2.47	 0.0	 0.0	 1	    1.08829	   -9.85569	 115.0	 1	    1.10000	    0.90000;
	173	 1	 14.06	 4.01	 0.0	 0.0	 1	    1.08349	  -10.55810	 115.0	 1	    1.10000	    0.90000;
	174	 1	 4.47	 1.27	 0.0	 0.0	 1	    1.09102	   -9.28983	 115.0	 1	    1.10000	    0.90000;
	175	 1	 11.8	 3.36	 0.0	 0.0	 1	    1.08173	  -10.90028	 115.0	 1	    1.10000	    0.90000;
	176	 1	 30.69	 8.75	 0.0	 0.0	 1	    1.07901	  -10.55419	 115.0	 1	    1.10000	    0.90000;
	177	 1	 15.45	 4.4	 0.0	 0.0	 1	    1.07506	   -8.28357	 115.0	 1	    1.10000	    0.90000;
	178	 1	 0.0	 0.0	 0.0	 0.0	 1	    1.08764	   -6.67728	 230.0	 1	    1.10000	    0.90000;
	179	 1	 38.1	 10.86	 0.0	 0.0	 1	    1.08880	   -9.32653	 115.0	 1	    1.10000	    0.90000;
	180	 1	 12.5	 3.56	 0.0	 0.0	 1	    1.08832	   -9.96794	 115.0	 1	    1.10000	    0.90000;
	181	 1	 76.87	 21.91	 0.0	 0.0	 1	    1.07864	  -11.06397	 115.0	 1	    1.10000	    0.90000;
	182	 2	 0.0	 0.0	 0.0	 0.0	 1	    1.10000	   -8.58747	 13.8	 1	    1.10000	    0.90000;
	183	 2	 0.0	 0.0	 0.0	 0.0	 1	    1.09239	   -9.61389	 13.8	 1	    1.10000	    0.90000;
	184	 1	 17.26	 4.92	 0.0	 0.0	 1	    1.09229	   -9.52139	 115.0	 1	    1.10000	    0.90000;
	185	 1	 17.42	 4.96	 0.0	 0.0	 1	    1.07893	  -10.58651	 115.0	 1	    1.10000	    0.90000;
	186	 1	 3.12	 0.89	 0.0	 0.0	 1	    1.07757	   -7.65870	 115.0	 1	    1.10000	    0.90000;
	187	 1	 0.0	 0.0	 0.0	 0.0	 1	    1.09741	   -2.10805	 230.0	 1	    1.10000	    0.90000;
	188	 1	 0.0	 0.0	 0.0	 0.0	 1	    1.09247	   -5.69894	 115.0	 1	    1.10000	    0.90000;
	189	 3	 0.0	 0.0	 0.0	 0.0	 1	    1.10000	   -0.00000	 13.8	 1	    1.10000	    0.90000;
	190	 1	 26.41	 7.53	 0.0	 0.0	 1	    1.07179	   -9.12875	 115.0	 1	    1.10000	    0.90000;
	191	 1	 11.67	 3.32	 0.0	 0.0	 1	    1.09240	   -8.82280	 115.0	 1	    1.10000	    0.90000;
	192	 1	 72.21	 20.58	 0.0	 0.0	 1	    1.06121	   -8.64690	 115.0	 1	    1.10000	    0.90000;
	193	 1	 32.61	 9.29	 0.0	 0.0	 1	    1.06093	   -8.42033	 115.0	 1	    1.10000	    0.90000;
	194	 1	 60.67	 17.29	 0.0	 50.0	 1	    1.08658	  -10.32253	 115.0	 1	    1.10000	    0.90000;
	195	 1	 0.0	 0.0	 0.0	 0.0	 1	    1.07884	   -7.59451	 115.0	 1	    1.10000	    0.90000;
	196	 2	 0.0	 0.0	 0.0	 0.0	 1	    1.07884	   -7.59451	 13.8	 1	    1.10000	    0.90000;
	197	 2	 0.0	 0.0	 0.0	 0.0	 1	    1.07884	   -7.59451	 13.8	 1	    1.10000	    0.90000;
	198	 1	 7.97	 2.27	 0.0	 0.0	 1	    1.06992	   -7.70048	 115.0	 1	    1.10000	    0.90000;
	199	 1	 6.69	 1.91	 0.0	 0.0	 1	    1.08986	   -9.03855	 115.0	 1	    1.10000	    0.90000;
	200	 1	 14.97	 4.27	 0.0	 0.0	 1	    1.06985	  -10.02756	 115.0	 1	    1.10000	    0.90000;
];

%% generator data
%	bus	Pg	Qg	Qmax	Qmin	Vg	mBase	status	Pmax	Pmin	Pc1	Pc2	Qc1min	Qc1max	Qc2min	Qc2max	ramp_agc	ramp_10	ramp_30	ramp_q	apf
mpc.gen = [
	49	 4.53	 2.11	 2.11	 -0.55	 1.09698	 5.44	 1	 4.53	 1.36	 0.0	 0.0	 0.0	 0.0	 0.0	 0.0	 0.0	 0.0	 0.0	 0.0	 0.0;
	50	 4.53	 2.11	 2.11	 -0.55	 1.09441	 5.44	 1	 4.53	 1.36	 0.0	 0.0	 0.0	 0.0	 0.0	 0.0	 0.0	 0.0	 0.0	 0.0	 0.0;
	51	 4.53	 2.11	 2.11	 -0.55	 1.09845	 5.44	 1	 4.53	 1.36	 0.0	 0.0	 0.0	 0.0	 0.0	 0.0	 0.0	 0.0	 0.0	 0.0	 0.0;
	52	 4.53	 2.11	 2.11	 -0.55	 1.09396	 5.44	 1	 4.53	 1.36	 0.0	 0.0	 0.0	 0.0	 0.0	 0.0	 0.0	 0.0	 0.0	 0.0	 0.0;
	53	 9.07	 2.562	 4.23	 -1.11	 1.1	 10.88	 1	 9.07	 2.72	 0.0	 0.0	 0.0	 0.0	 0.0	 0.0	 0.0	 0.0	 0.0	 0.0	 0.0;
	65	 74.292	 8.162	 32.04	 -21.66	 1.1	 180.48	 1	 150.4	 45.12	 0.0	 0.0	 0.0	 0.0	 0.0	 0.0	 0.0	 0.0	 0.0	 0.0	 0.0;
	67	 4.7	 1.103	 2.19	 -0.57	 1.1	 5.64	 1	 4.7	 1.41	 0.0	 0.0	 0.0	 0.0	 0.0	 0.0	 0.0	 0.0	 0.0	 0.0	 0.0;
	68	 27.92	 1.096	 13.01	 -3.41	 1.1	 33.5	 1	 27.92	 8.38	 0.0	 0.0	 0.0	 0.0	 0.0	 0.0	 0.0	 0.0	 0.0	 0.0	 0.0;
	69	 27.92	 1.708	 13.01	 -3.41	 1.1	 33.5	 1	 27.92	 8.38	 0.0	 0.0	 0.0	 0.0	 0.0	 0.0	 0.0	 0.0	 0.0	 0.0	 0.0;
	70	 27.92	 0.964	 13.01	 -3.41	 1.1	 33.5	 1	 27.92	 8.38	 0.0	 0.0	 0.0	 0.0	 0.0	 0.0	 0.0	 0.0	 0.0	 0.0	 0.0;
	71	 27.92	 2.198	 13.01	 -3.41	 1.1	 33.5	 1	 27.92	 8.38	 0.0	 0.0	 0.0	 0.0	 0.0	 0.0	 0.0	 0.0	 0.0	 0.0	 0.0;
	72	 27.92	 2.356	 13.01	 -3.41	 1.1	 33.5	 1	 27.92	 8.38	 0.0	 0.0	 0.0	 0.0	 0.0	 0.0	 0.0	 0.0	 0.0	 0.0	 0.0;
	73	 27.92	 0.909	 13.01	 -3.41	 1.1	 33.5	 1	 27.92	 8.38	 0.0	 0.0	 0.0	 0.0	 0.0	 0.0	 0.0	 0.0	 0.0	 0.0	 0.0;
	76	 1.2	 2.04	 2.04	 -0.44	 1.09393	 4.8	 1	 4.0	 1.2	 0.0	 0.0	 0.0	 0.0	 0.0	 0.0	 0.0	 0.0	 0.0	 0.0	 0.0;
	77	 0.72	 1.036	 1.22	 -0.27	 1.1	 2.88	 1	 2.4	 0.72	 0.0	 0.0	 0.0	 0.0	 0.0	 0.0	 0.0	 0.0	 0.0	 0.0	 0.0;
	78	 2988.47	 134.905	 9.16	 -2.0	 1.07891	 21.6	 0	 18.0	 5.4	 0.0	 0.0	 0.0	 0.0	 0.0	 0.0	 0.0	 0.0	 0.0	 0.0	 0.0;
	79	 4113.0	 45.108	 9.16	 -2.0	 1.07891	 21.6	 0	 18.0	 5.4	 0.0	 0.0	 0.0	 0.0	 0.0	 0.0	 0.0	 0.0	 0.0	 0.0	 0.0;
	90	 3.2	 0.786	 1.63	 -0.36	 1.1	 3.84	 1	 3.2	 0.96	 0.0	 0.0	 0.0	 0.0	 0.0	 0.0	 0.0	 0.0	 0.0	 0.0	 0.0;
	91	 5.0	 2.55	 2.55	 -0.55	 1.09657	 6.0	 1	 5.0	 1.5	 0.0	 0.0	 0.0	 0.0	 0.0	 0.0	 0.0	 0.0	 0.0	 0.0	 0.0;
	92	 699.0	 58.724	 3.21	 -0.7	 1.08397	 7.56	 0	 6.3	 1.89	 0.0	 0.0	 0.0	 0.0	 0.0	 0.0	 0.0	 0.0	 0.0	 0.0	 0.0;
	94	 18.0	 0.231	 8.39	 -2.2	 1.1	 21.6	 1	 18.0	 5.4	 0.0	 0.0	 0.0	 0.0	 0.0	 0.0	 0.0	 0.0	 0.0	 0.0	 0.0;
	104	 85.93	 12.266	 21.09	 -14.26	 1.1	 118.8	 1	 99.0	 29.7	 0.0	 0.0	 0.0	 0.0	 0.0	 0.0	 0.0	 0.0	 0.0	 0.0	 0.0;
	105	 126.778	 19.081	 42.17	 -28.51	 1.1	 237.6	 1	 198.0	 59.4	 0.0	 0.0	 0.0	 0.0	 0.0	 0.0	 0.0	 0.0	 0.0	 0.0	 0.0;
	114	 1.7	 0.36	 0.36	 -0.24	 1.08799	 2.04	 1	 1.7	 0.51	 0.0	 0.0	 0.0	 0.0	 0.0	 0.0	 0.0	 0.0	 0.0	 0.0	 0.0;
	115	 119.695	 26.461	 31.95	 -21.6	 1.1	 180.0	 1	 150.0	 45.0	 0.0	 0.0	 0.0	 0.0	 0.0	 0.0	 0.0	 0.0	 0.0	 0.0	 0.0;
	125	 72.136	 14.603	 60.6	 -15.87	 1.1	 156.06	 1	 130.05	 39.02	 0.0	 0.0	 0.0	 0.0	 0.0	 0.0	 0.0	 0.0	 0.0	 0.0	 0.0;
	126	 113.789	 25.463	 60.6	 -15.87	 1.1	 156.06	 1	 130.05	 39.02	 0.0	 0.0	 0.0	 0.0	 0.0	 0.0	 0.0	 0.0	 0.0	 0.0	 0.0;
	127	 130.05	 49.071	 60.6	 -15.87	 1.1	 156.06	 1	 130.05	 39.02	 0.0	 0.0	 0.0	 0.0	 0.0	 0.0	 0.0	 0.0	 0.0	 0.0	 0.0;
	135	 185.32	 44.167	 208.02	 -54.46	 1.1	 535.68	 1	 446.4	 133.92	 0.0	 0.0	 0.0	 0.0	 0.0	 0.0	 0.0	 0.0	 0.0	 0.0	 0.0;
	136	 185.555	 51.948	 208.02	 -54.46	 1.1	 535.68	 1	 446.4	 133.92	 0.0	 0.0	 0.0	 0.0	 0.0	 0.0	 0.0	 0.0	 0.0	 0.0	 0.0;
	147	 73.774	 18.219	 21.41	 -14.47	 1.1	 120.6	 1	 100.5	 30.15	 0.0	 0.0	 0.0	 0.0	 0.0	 0.0	 0.0	 0.0	 0.0	 0.0	 0.0;
	151	 5.4	 0.833	 2.52	 -0.66	 1.0968	 6.48	 1	 5.4	 1.62	 0.0	 0.0	 0.0	 0.0	 0.0	 0.0	 0.0	 0.0	 0.0	 0.0	 0.0;
	152	 53.198	 7.434	 35.99	 -9.42	 1.1	 92.67	 1	 77.22	 23.17	 0.0	 0.0	 0.0	 0.0	 0.0	 0.0	 0.0	 0.0	 0.0	 0.0	 0.0;
	153	 40.885	 5.207	 35.99	 -9.42	 1.1	 92.67	 1	 77.22	 23.17	 0.0	 0.0	 0.0	 0.0	 0.0	 0.0	 0.0	 0.0	 0.0	 0.0	 0.0;
	154	 61.782	 9.332	 35.99	 -9.42	 1.09997	 92.67	 1	 77.22	 23.17	 0.0	 0.0	 0.0	 0.0	 0.0	 0.0	 0.0	 0.0	 0.0	 0.0	 0.0;
	155	 61.784	 9.381	 35.99	 -9.42	 1.09985	 92.67	 1	 77.22	 23.17	 0.0	 0.0	 0.0	 0.0	 0.0	 0.0	 0.0	 0.0	 0.0	 0.0	 0.0;
	161	 2232.0	 71.678	 70.55	 -15.38	 1.07513	 166.32	 0	 138.6	 41.58	 0.0	 0.0	 0.0	 0.0	 0.0	 0.0	 0.0	 0.0	 0.0	 0.0	 0.0;
	164	 2692.0	 716.456	 6.11	 -1.33	 1.08396	 14.4	 0	 12.0	 3.6	 0.0	 0.0	 0.0	 0.0	 0.0	 0.0	 0.0	 0.0	 0.0	 0.0	 0.0;
	165	 318.0	 15.391	 13.23	 -2.89	 1.08396	 31.2	 0	 26.0	 7.8	 0.0	 0.0	 0.0	 0.0	 0.0	 0.0	 0.0	 0.0	 0.0	 0.0	 0.0;
	166	 1900.0	 179.845	 4.78	 -1.04	 1.08396	 11.28	 0	 9.4	 2.82	 0.0	 0.0	 0.0	 0.0	 0.0	 0.0	 0.0	 0.0	 0.0	 0.0	 0.0;
	167	 9.399	 4.78	 4.78	 -1.04	 1.09333	 11.28	 1	 9.4	 2.82	 0.0	 0.0	 0.0	 0.0	 0.0	 0.0	 0.0	 0.0	 0.0	 0.0	 0.0;
	168	 -365.801	 29.029	 4.78	 -1.04	 1.08396	 11.28	 0	 9.4	 2.82	 0.0	 0.0	 0.0	 0.0	 0.0	 0.0	 0.0	 0.0	 0.0	 0.0	 0.0;
	169	 0.0	 42.0	 4.78	 -1.04	 1.08396	 11.28	 0	 9.4	 2.82	 0.0	 0.0	 0.0	 0.0	 0.0	 0.0	 0.0	 0.0	 0.0	 0.0	 0.0;
	170	 6.361	 4.487	 4.78	 -1.04	 1.1	 11.28	 1	 9.4	 2.82	 0.0	 0.0	 0.0	 0.0	 0.0	 0.0	 0.0	 0.0	 0.0	 0.0	 0.0;
	182	 17.5	 7.617	 8.16	 -2.14	 1.1	 21.0	 1	 17.5	 5.25	 0.0	 0.0	 0.0	 0.0	 0.0	 0.0	 0.0	 0.0	 0.0	 0.0	 0.0;
	183	 26.6	 12.4	 12.4	 -3.25	 1.09239	 31.92	 1	 26.6	 7.98	 0.0	 0.0	 0.0	 0.0	 0.0	 0.0	 0.0	 0.0	 0.0	 0.0	 0.0;
	189	 569.15	 25.062	 209.45	 -46.67	 1.1	 682.98	 1	 569.15	 170.75	 0.0	 0.0	 0.0	 0.0	 0.0	 0.0	 0.0	 0.0	 0.0	 0.0	 0.0;
	196	 2628.0	 531.748	 34.36	 -7.49	 1.07884	 81.0	 0	 67.5	 20.25	 0.0	 0.0	 0.0	 0.0	 0.0	 0.0	 0.0	 0.0	 0.0	 0.0	 0.0;
	197	 707.0	 121.39	 34.36	 -7.49	 1.07884	 81.0	 0	 67.5	 20.25	 0.0	 0.0	 0.0	 0.0	 0.0	 0.0	 0.0	 0.0	 0.0	 0.0	 0.0;
];

%% generator cost data
%	2	startup	shutdown	n	c(n-1)	...	c0
mpc.gencost = [
	2	 0.0	 0.0	 3	   0.002000	  19.000000	 236.120000;
	2	 0.0	 0.0	 3	   0.002000	  19.000000	 236.120000;
	2	 0.0	 0.0	 3	   0.002000	  19.000000	 236.120000;
	2	 0.0	 0.0	 3	   0.002000	  19.000000	 236.120000;
	2	 0.0	 0.0	 3	   0.002000	  19.000000	 236.240000;
	2	 0.0	 0.0	 3	   0.000000	   0.000000	   0.000000;
	2	 0.0	 0.0	 3	   0.002000	  19.000000	 236.130000;
	2	 0.0	 0.0	 3	   0.002000	  19.000000	 236.740000;
	2	 0.0	 0.0	 3	   0.002000	  19.000000	 236.740000;
	2	 0.0	 0.0	 3	   0.002000	  19.000000	 236.740000;
	2	 0.0	 0.0	 3	   0.002000	  19.000000	 236.740000;
	2	 0.0	 0.0	 3	   0.002000	  19.000000	 236.740000;
	2	 0.0	 0.0	 3	   0.002000	  19.000000	 236.740000;
	2	 0.0	 0.0	 3	   0.002000	  23.157000	 606.000000;
	2	 0.0	 0.0	 3	   0.002000	  23.146000	 603.600000;
	2	 0.0	 0.0	 3	   0.002000	  23.252000	 627.000000;
	2	 0.0	 0.0	 3	   0.002000	  23.252000	 627.000000;
	2	 0.0	 0.0	 3	   0.002000	  23.152000	 604.800000;
	2	 0.0	 0.0	 3	   0.002000	  23.164000	 607.500000;
	2	 0.0	 0.0	 3	   0.002000	  23.173000	 609.450000;
	2	 0.0	 0.0	 3	   0.002000	  19.000000	 236.480000;
	2	 0.0	 0.0	 3	   0.000000	   0.000000	   0.000000;
	2	 0.0	 0.0	 3	   0.000000	   0.000000	   0.000000;
	2	 0.0	 0.0	 3	   0.000000	   0.000000	   0.000000;
	2	 0.0	 0.0	 3	   0.000000	   0.000000	   0.000000;
	2	 0.0	 0.0	 3	   0.002000	  19.000000	 610.140000;
	2	 0.0	 0.0	 3	   0.002000	  19.000000	 610.140000;
	2	 0.0	 0.0	 3	   0.002000	  19.000000	 610.140000;
	2	 0.0	 0.0	 3	   0.002000	  19.000000	 1261.330000;
	2	 0.0	 0.0	 3	   0.002000	  19.000000	 1261.330000;
	2	 0.0	 0.0	 3	   0.000000	   0.000000	   0.000000;
	2	 0.0	 0.0	 3	   0.002000	  19.000000	 236.140000;
	2	 0.0	 0.0	 3	   0.002000	  19.000000	 253.010000;
	2	 0.0	 0.0	 3	   0.002000	  19.000000	 253.010000;
	2	 0.0	 0.0	 3	   0.002000	  19.000000	 253.010000;
	2	 0.0	 0.0	 3	   0.002000	  19.000000	 253.010000;
	2	 0.0	 0.0	 3	   0.002000	  24.070000	 807.900000;
	2	 0.0	 0.0	 3	   0.002000	  23.211000	 618.000000;
	2	 0.0	 0.0	 3	   0.002000	  23.306000	 639.000000;
	2	 0.0	 0.0	 3	   0.002000	  23.194000	 614.100000;
	2	 0.0	 0.0	 3	   0.002000	  23.194000	 614.100000;
	2	 0.0	 0.0	 3	   0.002000	  23.194000	 614.100000;
	2	 0.0	 0.0	 3	   0.002000	  23.194000	 614.100000;
	2	 0.0	 0.0	 3	   0.002000	  23.194000	 614.100000;
	2	 0.0	 0.0	 3	   0.002000	  19.000000	 236.470000;
	2	 0.0	 0.0	 3	   0.002000	  19.000000	 236.710000;
	2	 0.0	 0.0	 3	   0.000000	   6.710000	 1272.130000;
	2	 0.0	 0.0	 3	   0.002000	  23.588000	 701.250000;
	2	 0.0	 0.0	 3	   0.002000	  23.588000	 701.250000;
];

%% branch data
%	fbus	tbus	r	x	b	rateA	rateB	rateC	ratio	angle	status	angmin	angmax
mpc.branch = [
	2	 1	 0.000673	 0.003339	 0.0	 100.0	 0.0	 0.0	 0.0	 0.0	 1	 -3.590893	 3.590893;
	1	 119	 0.018542	 0.119758	 0.02285	 221.1	 0.0	 0.0	 0.0	 0.0	 1	 -3.590893	 3.590893;
	124	 1	 0.005615	 0.036268	 0.00692	 221.1	 0.0	 0.0	 0.0	 0.0	 1	 -3.590893	 3.590893;
	193	 1	 0.004258	 0.027501	 0.00525	 221.1	 0.0	 0.0	 0.0	 0.0	 1	 -3.590893	 3.590893;
	4	 3	 0.000573	 0.003303	 0.0	 100.0	 0.0	 0.0	 0.0	 0.0	 1	 -3.590893	 3.590893;
	57	 3	 0.008505	 0.058098	 0.00988	 221.1	 0.0	 0.0	 0.0	 0.0	 1	 -3.590893	 3.590893;
	3	 137	 0.005889	 0.038035	 0.00726	 221.1	 0.0	 0.0	 0.0	 0.0	 1	 -3.590893	 3.590893;
	6	 5	 0.000694	 0.003337	 0.0	 100.0	 0.0	 0.0	 0.0	 0.0	 1	 -3.590893	 3.590893;
	48	 5	 0.006246	 0.043513	 0.00711	 221.1	 0.0	 0.0	 0.0	 0.0	 1	 -3.590893	 3.590893;
	5	 64	 0.007877	 0.054875	 0.00897	 221.1	 0.0	 0.0	 0.0	 0.0	 1	 -3.590893	 3.590893;
	8	 7	 0.000634	 0.003189	 0.0	 100.0	 0.0	 0.0	 0.0	 0.0	 1	 -3.590893	 3.590893;
	7	 86	 0.003756	 0.024259	 0.00463	 221.1	 0.0	 0.0	 0.0	 0.0	 1	 -3.590893	 3.590893;
	7	 101	 0.003597	 0.023232	 0.00443	 221.1	 0.0	 0.0	 0.0	 0.0	 1	 -3.590893	 3.590893;
	7	 148	 0.008667	 0.05598	 0.01068	 221.1	 0.0	 0.0	 0.0	 0.0	 1	 -3.590893	 3.590893;
	10	 9	 0.000585	 0.003967	 0.0	 100.0	 0.0	 0.0	 0.0	 0.0	 1	 -3.590893	 3.590893;
	9	 124	 0.008069	 0.055123	 0.00938	 221.1	 0.0	 0.0	 0.0	 0.0	 1	 -3.590893	 3.590893;
	131	 9	 0.004139	 0.026732	 0.0051	 221.1	 0.0	 0.0	 0.0	 0.0	 1	 -3.590893	 3.590893;
	9	 141	 0.004446	 0.03097	 0.00506	 221.1	 0.0	 0.0	 0.0	 0.0	 1	 -3.590893	 3.590893;
	9	 193	 0.003695	 0.025244	 0.00429	 221.1	 0.0	 0.0	 0.0	 0.0	 1	 -3.590893	 3.590893;
	12	 11	 0.000534	 0.003533	 0.0	 100.0	 0.0	 0.0	 0.0	 0.0	 1	 -3.590893	 3.590893;
	13	 11	 0.000619	 0.003606	 0.0	 100.0	 0.0	 0.0	 0.0	 0.0	 1	 -3.590893	 3.590893;
	11	 15	 0.010408	 0.06722	 0.01282	 221.1	 0.0	 0.0	 0.0	 0.0	 1	 -3.590893	 3.590893;
	11	 93	 0.018394	 0.128141	 0.02095	 221.1	 0.0	 0.0	 0.0	 0.0	 1	 -3.590893	 3.590893;
	158	 11	 0.008519	 0.058199	 0.0099	 221.1	 0.0	 0.0	 0.0	 0.0	 1	 -3.590893	 3.590893;
	15	 14	 0.000637	 0.027526	 0.0	 300.0	 0.0	 0.0	 1.0	 0.0	 1	 -3.590893	 3.590893;
	14	 121	 0.007013	 0.050098	 0.09134	 402.36	 0.0	 0.0	 0.0	 0.0	 1	 -3.590893	 3.590893;
	14	 149	 0.009133	 0.065244	 0.11895	 402.36	 0.0	 0.0	 0.0	 0.0	 1	 -3.590893	 3.590893;