%%%%%%%%%%%%%%%%%%%%%%%%%%%%%%%%%%%%%%%%%%%%%%%%%%%%%%%%%%%%%%%%%%%%%%%%%%%
%%%%                                                                  %%%%%
%%%%    IEEE PES Power Grid Library - Optimal Power Flow - v23.07     %%%%%
%%%%          (https://github.com/power-grid-lib/pglib-opf)           %%%%%
%%%%             Benchmark Group - Small Angle Difference             %%%%%
%%%%                         23 - July - 2023                         %%%%%
%%%%                                                                  %%%%%
%%%%%%%%%%%%%%%%%%%%%%%%%%%%%%%%%%%%%%%%%%%%%%%%%%%%%%%%%%%%%%%%%%%%%%%%%%%
function mpc = pglib_opf_case7336_epigrids__sad
mpc.version = '2';
mpc.baseMVA = 100.0;

%% bus data
%	bus_i	type	Pd	Qd	Gs	Bs	area	Vm	Va	baseKV	zone	Vmax	Vmin
mpc.bus = [
	50310	 2	 0.0	 0.0	 0.0	 0.0	 34	    1.00000	    0.00000	 345.0	 1	    1.10000	    0.90000;
	50311	 2	 0.0	 0.0	 0.0	 0.0	 34	    1.00000	    0.00000	 345.0	 1	    1.10000	    0.90000;
	50312	 2	 0.0	 0.0	 0.0	 0.0	 34	    1.00000	    0.00000	 345.0	 1	    1.10000	    0.90000;
	50313	 2	 0.0	 0.0	 0.0	 0.0	 34	    1.00000	    0.00000	 345.0	 1	    1.10000	    0.90000;
	50314	 2	 0.0	 0.0	 0.0	 0.0	 34	    1.00000	    0.00000	 345.0	 1	    1.10000	    0.90000;
	50315	 2	 0.0	 0.0	 0.0	 0.0	 34	    1.00000	    0.00000	 345.0	 1	    1.10000	    0.90000;
	50316	 2	 0.0	 0.0	 0.0	 0.0	 34	    1.00000	    0.00000	 230.0	 1	    1.10000	    0.90000;
	50317	 2	 0.0	 0.0	 0.0	 0.0	 34	    1.00000	    0.00000	 230.0	 1	    1.10000	    0.90000;
	50318	 2	 0.0	 0.0	 0.0	 0.0	 34	    1.00000	    0.00000	 345.0	 1	    1.10000	    0.90000;
	50319	 2	 0.0	 0.0	 0.0	 0.0	 34	    1.00000	    0.00000	 230.0	 1	    1.10000	    0.90000;
	50320	 3	 0.0	 0.0	 0.0	 0.0	 34	    1.00000	    0.00000	 345.0	 1	    1.10000	    0.90000;
	50321	 2	 0.0	 0.0	 0.0	 0.0	 34	    1.00000	    0.00000	 345.0	 1	    1.10000	    0.90000;
	50322	 2	 0.0	 0.0	 0.0	 0.0	 34	    1.00000	    0.00000	 345.0	 1	    1.10000	    0.90000;
	50323	 2	 0.0	 0.0	 0.0	 0.0	 34	    1.00000	    0.00000	 345.0	 1	    1.10000	    0.90000;
	50324	 2	 0.0	 0.0	 0.0	 0.0	 34	    1.00000	    0.00000	 345.0	 1	    1.10000	    0.90000;
	50325	 2	 0.0	 0.0	 0.0	 0.0	 34	    1.00000	    0.00000	 345.0	 1	    1.10000	    0.90000;
	50326	 2	 0.0	 0.0	 0.0	 0.0	 34	    1.00000	    0.00000	 345.0	 1	    1.10000	    0.90000;
	50327	 2	 0.0	 0.0	 0.0	 0.0	 34	    1.00000	    0.00000	 345.0	 1	    1.10000	    0.90000;
	50328	 2	 0.0	 0.0	 0.0	 0.0	 34	    1.00000	    0.00000	 345.0	 1	    1.10000	    0.90000;
	50329	 2	 0.0	 0.0	 0.0	 0.0	 34	    1.00000	    0.00000	 345.0	 1	    1.10000	    0.90000;
	50330	 2	 0.0	 0.0	 0.0	 0.0	 34	    1.00000	    0.00000	 345.0	 1	    1.10000	    0.90000;
	50331	 2	 0.0	 0.0	 0.0	 0.0	 34	    1.00000	    0.00000	 345.0	 1	    1.10000	    0.90000;
	50332	 2	 0.0	 0.0	 0.0	 0.0	 34	    1.00000	    0.00000	 230.0	 1	    1.10000	    0.90000;
	50333	 2	 0.0	 0.0	 0.0	 0.0	 34	    1.00000	    0.00000	 345.0	 1	    1.10000	    0.90000;
	50334	 2	 0.0	 0.0	 0.0	 0.0	 34	    1.00000	    0.00000	 230.0	 1	    1.10000	    0.90000;
	50335	 2	 0.0	 0.0	 0.0	 0.0	 34	    1.00000	    0.00000	 230.0	 1	    1.10000	    0.90000;
	50336	 2	 0.0	 0.0	 0.0	 0.0	 34	    1.00000	    0.00000	 345.0	 1	    1.10000	    0.90000;
	50337	 2	 0.0	 0.0	 0.0	 0.0	 34	    1.00000	    0.00000	 345.0	 1	    1.10000	    0.90000;
	50338	 2	 0.0	 0.0	 0.0	 0.0	 34	    1.00000	    0.00000	 138.0	 1	    1.10000	    0.90000;
	50339	 2	 0.0	 0.0	 0.0	 0.0	 34	    1.00000	    0.00000	 345.0	 1	    1.10000	    0.90000;
	50340	 2	 0.0	 0.0	 0.0	 0.0	 34	    1.00000	    0.00000	 345.0	 1	    1.10000	    0.90000;
	50341	 2	 0.0	 0.0	 0.0	 0.0	 34	    1.00000	    0.00000	 138.0	 1	    1.10000	    0.90000;
	50342	 2	 0.0	 0.0	 0.0	 0.0	 34	    1.00000	    0.00000	 345.0	 1	    1.10000	    0.90000;
	50343	 2	 0.0	 0.0	 0.0	 0.0	 34	    1.00000	    0.00000	 345.0	 1	    1.10000	    0.90000;
	50344	 2	 0.0	 0.0	 0.0	 0.0	 34	    1.00000	    0.00000	 345.0	 1	    1.10000	    0.90000;
	50345	 2	 0.0	 0.0	 0.0	 0.0	 34	    1.00000	    0.00000	 345.0	 1	    1.10000	    0.90000;
	50346	 2	 0.0	 0.0	 0.0	 0.0	 34	    1.00000	    0.00000	 345.0	 1	    1.10000	    0.90000;
	50347	 2	 0.0	 0.0	 0.0	 0.0	 34	    1.00000	    0.00000	 230.0	 1	    1.10000	    0.90000;
	50348	 2	 0.0	 0.0	 0.0	 0.0	 34	    1.00000	    0.00000	 345.0	 1	    1.10000	    0.90000;
	50349	 2	 0.0	 0.0	 0.0	 0.0	 34	    1.00000	    0.00000	 138.0	 1	    1.10000	    0.90000;
	50350	 2	 0.0	 0.0	 0.0	 0.0	 34	    1.00000	    0.00000	 345.0	 1	    1.10000	    0.90000;
	50351	 2	 0.0	 0.0	 0.0	 0.0	 34	    1.00000	    0.00000	 138.0	 1	    1.10000	    0.90000;
	50352	 1	 0.0	 0.0	 0.0	 0.0	 34	    1.00000	    0.00000	 345.0	 1	    1.10000	    0.90000;
	50353	 2	 0.0	 0.0	 0.0	 0.0	 34	    1.00000	    0.00000	 230.0	 1	    1.10000	    0.90000;
	50354	 2	 0.0	 0.0	 0.0	 0.0	 34	    1.00000	    0.00000	 345.0	 1	    1.10000	    0.90000;
	50355	 2	 0.0	 0.0	 0.0	 0.0	 34	    1.00000	    0.00000	 345.0	 1	    1.10000	    0.90000;
	50356	 2	 0.0	 0.0	 0.0	 0.0	 34	    1.00000	    0.00000	 230.0	 1	    1.10000	    0.90000;
	50357	 2	 0.0	 0.0	 0.0	 0.0	 34	    1.00000	    0.00000	 138.0	 1	    1.10000	    0.90000;
	50358	 2	 0.0	 0.0	 0.0	 0.0	 34	    1.00000	    0.00000	 138.0	 1	    1.10000	    0.90000;
	50359	 1	 0.0	 0.0	 0.0	 0.0	 34	    1.00000	    0.00000	 230.0	 1	    1.10000	    0.90000;
	50360	 2	 0.0	 0.0	 0.0	 0.0	 34	    1.00000	    0.00000	 138.0	 1	    1.10000	    0.90000;
	50361	 2	 0.0	 0.0	 0.0	 0.0	 34	    1.00000	    0.00000	 345.0	 1	    1.10000	    0.90000;
	50362	 2	 0.0	 0.0	 0.0	 0.0	 34	    1.00000	    0.00000	 345.0	 1	    1.10000	    0.90000;
	50363	 2	 0.0	 0.0	 0.0	 0.0	 34	    1.00000	    0.00000	 345.0	 1	    1.10000	    0.90000;
	50364	 2	 0.0	 0.0	 0.0	 0.0	 34	    1.00000	    0.00000	 345.0	 1	    1.10000	    0.90000;
	50365	 2	 0.0	 0.0	 0.0	 0.0	 34	    1.00000	    0.00000	 345.0	 1	    1.10000	    0.90000;
	50366	 2	 0.0	 0.0	 0.0	 0.0	 34	    1.00000	    0.00000	 345.0	 1	    1.10000	    0.90000;
	50367	 2	 0.0	 0.0	 0.0	 0.0	 34	    1.00000	    0.00000	 345.0	 1	    1.10000	    0.90000;
	50368	 2	 0.0	 0.0	 0.0	 0.0	 34	    1.00000	    0.00000	 230.0	 1	    1.10000	    0.90000;
	50369	 2	 0.0	 0.0	 0.0	 0.0	 34	    1.00000	    0.00000	 138.0	 1	    1.10000	    0.90000;
	50370	 2	 0.0	 0.0	 0.0	 0.0	 34	    1.00000	    0.00000	 138.0	 1	    1.10000	    0.90000;
	50371	 2	 0.0	 0.0	 0.0	 0.0	 34	    1.00000	    0.00000	 345.0	 1	    1.10000	    0.90000;
	50372	 2	 0.0	 0.0	 0.0	 0.0	 34	    1.00000	    0.00000	 345.0	 1	    1.10000	    0.90000;
	50373	 2	 0.0	 0.0	 0.0	 0.0	 34	    1.00000	    0.00000	 345.0	 1	    1.10000	    0.90000;
	50374	 2	 0.0	 0.0	 0.0	 0.0	 34	    1.00000	    0.00000	 345.0	 1	    1.10000	    0.90000;
	50375	 2	 0.0	 0.0	 0.0	 0.0	 34	    1.00000	    0.00000	 345.0	 1	    1.10000	    0.90000;
	50376	 2	 0.0	 0.0	 0.0	 0.0	 34	    1.00000	    0.00000	 345.0	 1	    1.10000	    0.90000;
	50377	 2	 0.0	 0.0	 0.0	 0.0	 34	    1.00000	    0.00000	 345.0	 1	    1.10000	    0.90000;
	50378	 2	 0.0	 0.0	 0.0	 0.0	 34	    1.00000	    0.00000	 345.0	 1	    1.10000	    0.90000;
	50379	 2	 0.0	 0.0	 0.0	 0.0	 34	    1.00000	    0.00000	 345.0	 1	    1.10000	    0.90000;
	50380	 2	 0.0	 0.0	 0.0	 0.0	 34	    1.00000	    0.00000	 345.0	 1	    1.10000	    0.90000;
	50381	 2	 0.0	 0.0	 0.0	 0.0	 34	    1.00000	    0.00000	 345.0	 1	    1.10000	    0.90000;
	50382	 2	 0.0	 0.0	 0.0	 0.0	 34	    1.00000	    0.00000	 230.0	 1	    1.10000	    0.90000;
	50383	 1	 0.0	 0.0	 0.0	 0.0	 34	    1.00000	    0.00000	 345.0	 1	    1.10000	    0.90000;
	50384	 2	 0.0	 0.0	 0.0	 0.0	 34	    1.00000	    0.00000	 138.0	 1	    1.10000	    0.90000;
	50385	 2	 0.0	 0.0	 0.0	 0.0	 34	    1.00000	    0.00000	 345.0	 1	    1.10000	    0.90000;
	50386	 2	 0.0	 0.0	 0.0	 0.0	 34	    1.00000	    0.00000	 345.0	 1	    1.10000	    0.90000;
	50387	 2	 0.0	 0.0	 0.0	 0.0	 34	    1.00000	    0.00000	 345.0	 1	    1.10000	    0.90000;
	50388	 2	 0.0	 0.0	 0.0	 0.0	 34	    1.00000	    0.00000	 230.0	 1	    1.10000	    0.90000;
	50389	 2	 0.0	 0.0	 0.0	 0.0	 34	    1.00000	    0.00000	 345.0	 1	    1.10000	    0.90000;
	50390	 2	 0.0	 0.0	 0.0	 0.0	 34	    1.00000	    0.00000	 345.0	 1	    1.10000	    0.90000;
	50391	 2	 0.0	 0.0	 0.0	 0.0	 34	    1.00000	    0.00000	 345.0	 1	    1.10000	    0.90000;
	50392	 2	 0.0	 0.0	 0.0	 0.0	 34	    1.00000	    0.00000	 138.0	 1	    1.10000	    0.90000;
	50393	 2	 0.0	 0.0	 0.0	 0.0	 34	    1.00000	    0.00000	 345.0	 1	    1.10000	    0.90000;
	50394	 2	 0.0	 0.0	 0.0	 0.0	 34	    1.00000	    0.00000	 138.0	 1	    1.10000	    0.90000;
	50395	 2	 0.0	 0.0	 0.0	 0.0	 34	    1.00000	    0.00000	 230.0	 1	    1.10000	    0.90000;
	50396	 2	 0.0	 0.0	 0.0	 0.0	 34	    1.00000	    0.00000	 345.0	 1	    1.10000	    0.90000;
	50397	 2	 0.0	 0.0	 0.0	 0.0	 34	    1.00000	    0.00000	 345.0	 1	    1.10000	    0.90000;
	50398	 2	 0.0	 0.0	 0.0	 0.0	 34	    1.00000	    0.00000	 230.0	 1	    1.10000	    0.90000;
	50399	 2	 0.0	 0.0	 0.0	 0.0	 34	    1.00000	    0.00000	 345.0	 1	    1.10000	    0.90000;
	50400	 2	 0.0	 0.0	 0.0	 0.0	 34	    1.00000	    0.00000	 345.0	 1	    1.10000	    0.90000;
	50401	 2	 0.0	 0.0	 0.0	 0.0	 34	    1.00000	    0.00000	 345.0	 1	    1.10000	    0.90000;
	50402	 2	 0.0	 0.0	 0.0	 0.0	 34	    1.00000	    0.00000	 138.0	 1	    1.10000	    0.90000;
	50403	 2	 0.0	 0.0	 0.0	 0.0	 34	    1.00000	    0.00000	 345.0	 1	    1.10000	    0.90000;
	50404	 2	 0.0	 0.0	 0.0	 0.0	 34	    1.00000	    0.00000	 138.0	 1	    1.10000	    0.90000;
	50405	 1	 0.0	 0.0	 0.0	 0.0	 34	    1.00000	    0.00000	 345.0	 1	    1.10000	    0.90000;
	50406	 2	 0.0	 0.0	 0.0	 0.0	 34	    1.00000	    0.00000	 345.0	 1	    1.10000	    0.90000;
	50407	 2	 0.0	 0.0	 0.0	 0.0	 34	    1.00000	    0.00000	 345.0	 1	    1.10000	    0.90000;
	50408	 2	 0.0	 0.0	 0.0	 0.0	 34	    1.00000	    0.00000	 345.0	 1	    1.10000	    0.90000;
	50409	 2	 0.0	 0.0	 0.0	 0.0	 34	    1.00000	    0.00000	 345.0	 1	    1.10000	    0.90000;
	50410	 2	 0.0	 0.0	 0.0	 0.0	 34	    1.00000	    0.00000	 138.0	 1	    1.10000	    0.90000;
	50411	 2	 0.0	 0.0	 0.0	 0.0	 34	    1.00000	    0.00000	 345.0	 1	    1.10000	    0.90000;
	50412	 2	 0.0	 0.0	 0.0	 0.0	 34	    1.00000	    0.00000	 138.0	 1	    1.10000	    0.90000;
	50413	 2	 0.0	 0.0	 0.0	 0.0	 34	    1.00000	    0.00000	 230.0	 1	    1.10000	    0.90000;
	50414	 2	 0.0	 0.0	 0.0	 0.0	 34	    1.00000	    0.00000	 138.0	 1	    1.10000	    0.90000;
	50415	 1	 0.0	 0.0	 0.0	 0.0	 34	    1.00000	    0.00000	 230.0	 1	    1.10000	    0.90000;
	50416	 1	 0.0	 0.0	 0.0	 0.0	 34	    1.00000	    0.00000	 345.0	 1	    1.10000	    0.90000;
	50417	 1	 0.0	 0.0	 0.0	 0.0	 34	    1.00000	    0.00000	 345.0	 1	    1.10000	    0.90000;
	50418	 2	 0.0	 0.0	 0.0	 0.0	 34	    1.00000	    0.00000	 345.0	 1	    1.10000	    0.90000;
	50419	 2	 0.0	 0.0	 0.0	 0.0	 34	    1.00000	    0.00000	 138.0	 1	    1.10000	    0.90000;
	50420	 2	 0.0	 0.0	 0.0	 0.0	 34	    1.00000	    0.00000	 230.0	 1	    1.10000	    0.90000;
	50421	 2	 0.0	 0.0	 0.0	 0.0	 34	    1.00000	    0.00000	 138.0	 1	    1.10000	    0.90000;
	50422	 2	 0.0	 0.0	 0.0	 0.0	 34	    1.00000	    0.00000	 345.0	 1	    1.10000	    0.90000;
	50423	 2	 0.0	 0.0	 0.0	 0.0	 34	    1.00000	    0.00000	 345.0	 1	    1.10000	    0.90000;
	50424	 2	 0.0	 0.0	 0.0	 0.0	 34	    1.00000	    0.00000	 138.0	 1	    1.10000	    0.90000;
	50425	 2	 0.0	 0.0	 0.0	 0.0	 34	    1.00000	    0.00000	 138.0	 1	    1.10000	    0.90000;
	50426	 2	 0.0	 0.0	 0.0	 0.0	 34	    1.00000	    0.00000	 138.0	 1	    1.10000	    0.90000;
	50427	 2	 0.0	 0.0	 0.0	 0.0	 34	    1.00000	    0.00000	 138.0	 1	    1.10000	    0.90000;
	50428	 2	 0.0	 0.0	 0.0	 0.0	 34	    1.00000	    0.00000	 138.0	 1	    1.10000	    0.90000;
	50429	 2	 0.0	 0.0	 0.0	 0.0	 34	    1.00000	    0.00000	 345.0	 1	    1.10000	    0.90000;
	50430	 2	 0.0	 0.0	 0.0	 0.0	 34	    1.00000	    0.00000	 138.0	 1	    1.10000	    0.90000;
	50431	 2	 0.0	 0.0	 0.0	 0.0	 34	    1.00000	    0.00000	 345.0	 1	    1.10000	    0.90000;
	50432	 1	 0.0	 0.0	 0.0	 0.0	 34	    1.00000	    0.00000	 230.0	 1	    1.10000	    0.90000;
	50433	 2	 0.0	 0.0	 0.0	 0.0	 34	    1.00000	    0.00000	 138.0	 1	    1.10000	    0.90000;
	50434	 2	 0.0	 0.0	 0.0	 0.0	 34	    1.00000	    0.00000	 345.0	 1	    1.10000	    0.90000;
	50435	 2	 0.0	 0.0	 0.0	 0.0	 34	    1.00000	    0.00000	 138.0	 1	    1.10000	    0.90000;
	50436	 2	 0.0	 0.0	 0.0	 0.0	 34	    1.00000	    0.00000	 138.0	 1	    1.10000	    0.90000;
	50437	 2	 0.0	 0.0	 0.0	 0.0	 34	    1.00000	    0.00000	 345.0	 1	    1.10000	    0.90000;
	50438	 2	 0.0	 0.0	 0.0	 0.0	 34	    1.00000	    0.00000	 138.0	 1	    1.10000	    0.90000;
	50439	 2	 0.0	 0.0	 0.0	 0.0	 34	    1.00000	    0.00000	 345.0	 1	    1.10000	    0.90000;
	50440	 2	 0.0	 0.0	 0.0	 0.0	 34	    1.00000	    0.00000	 230.0	 1	    1.10000	    0.90000;
	50441	 2	 0.0	 0.0	 0.0	 0.0	 34	    1.00000	    0.00000	 345.0	 1	    1.10000	    0.90000;
	50442	 2	 0.0	 0.0	 0.0	 0.0	 34	    1.00000	    0.00000	 345.0	 1	    1.10000	    0.90000;
	50443	 2	 0.0	 0.0	 0.0	 0.0	 34	    1.00000	    0.00000	 138.0	 1	    1.10000	    0.90000;
	50444	 2	 0.0	 0.0	 0.0	 0.0	 34	    1.00000	    0.00000	 138.0	 1	    1.10000	    0.90000;
	50445	 1	 0.0	 0.0	 0.0	 0.0	 34	    1.00000	    0.00000	 345.0	 1	    1.10000	    0.90000;
	50446	 1	 0.0	 0.0	 0.0	 0.0	 34	    1.00000	    0.00000	 345.0	 1	    1.10000	    0.90000;
	50447	 2	 0.0	 0.0	 0.0	 0.0	 34	    1.00000	    0.00000	 138.0	 1	    1.10000	    0.90000;
	50448	 2	 0.0	 0.0	 0.0	 0.0	 34	    1.00000	    0.00000	 345.0	 1	    1.10000	    0.90000;
	50449	 2	 0.0	 0.0	 0.0	 0.0	 34	    1.00000	    0.00000	 345.0	 1	    1.10000	    0.90000;
	50450	 2	 0.0	 0.0	 0.0	 0.0	 34	    1.00000	    0.00000	 138.0	 1	    1.10000	    0.90000;
	50451	 2	 0.0	 0.0	 0.0	 0.0	 34	    1.00000	    0.00000	 138.0	 1	    1.10000	    0.90000;
	50452	 2	 0.0	 0.0	 0.0	 0.0	 34	    1.00000	    0.00000	 345.0	 1	    1.10000	    0.90000;
	50453	 2	 0.0	 0.0	 0.0	 0.0	 34	    1.00000	    0.00000	 345.0	 1	    1.10000	    0.90000;
	50454	 2	 0.0	 0.0	 0.0	 0.0	 34	    1.00000	    0.00000	 345.0	 1	    1.10000	    0.90000;
	50455	 2	 0.0	 0.0	 0.0	 0.0	 34	    1.00000	    0.00000	 345.0	 1	    1.10000	    0.90000;
	50456	 2	 0.0	 0.0	 0.0	 0.0	 34	    1.00000	    0.00000	 138.0	 1	    1.10000	    0.90000;
	50457	 2	 0.0	 0.0	 0.0	 0.0	 34	    1.00000	    0.00000	 138.0	 1	    1.10000	    0.90000;
	50458	 2	 0.0	 0.0	 0.0	 0.0	 34	    1.00000	    0.00000	 138.0	 1	    1.10000	    0.90000;
	50459	 2	 0.0	 0.0	 0.0	 0.0	 34	    1.00000	    0.00000	 138.0	 1	    1.10000	    0.90000;
	50460	 2	 0.0	 0.0	 0.0	 0.0	 34	    1.00000	    0.00000	 230.0	 1	    1.10000	    0.90000;
	50461	 2	 0.0	 0.0	 0.0	 0.0	 34	    1.00000	    0.00000	 345.0	 1	    1.10000	    0.90000;
	50462	 2	 0.0	 0.0	 0.0	 0.0	 34	    1.00000	    0.00000	 138.0	 1	    1.10000	    0.90000;
	50463	 2	 0.0	 0.0	 0.0	 0.0	 34	    1.00000	    0.00000	 345.0	 1	    1.10000	    0.90000;
	50464	 2	 0.0	 0.0	 0.0	 0.0	 34	    1.00000	    0.00000	 138.0	 1	    1.10000	    0.90000;
	50465	 1	 0.0	 0.0	 0.0	 0.0	 34	    1.00000	    0.00000	 345.0	 1	    1.10000	    0.90000;
	50466	 1	 0.0	 0.0	 0.0	 0.0	 34	    1.00000	    0.00000	 138.0	 1	    1.10000	    0.90000;
	50467	 2	 0.0	 0.0	 0.0	 0.0	 34	    1.00000	    0.00000	 138.0	 1	    1.10000	    0.90000;
	50468	 1	 0.0	 0.0	 0.0	 0.0	 34	    1.00000	    0.00000	 138.0	 1	    1.10000	    0.90000;
	50469	 2	 0.0	 0.0	 0.0	 0.0	 34	    1.00000	    0.00000	 138.0	 1	    1.10000	    0.90000;
	50470	 2	 0.0	 0.0	 0.0	 0.0	 34	    1.00000	    0.00000	 230.0	 1	    1.10000	    0.90000;
	50471	 2	 0.0	 0.0	 0.0	 0.0	 34	    1.00000	    0.00000	 138.0	 1	    1.10000	    0.90000;
	50472	 2	 0.0	 0.0	 0.0	 0.0	 34	    1.00000	    0.00000	 345.0	 1	    1.10000	    0.90000;
	50473	 2	 0.0	 0.0	 0.0	 0.0	 34	    1.00000	    0.00000	 138.0	 1	    1.10000	    0.90000;
	50474	 2	 0.0	 0.0	 0.0	 0.0	 34	    1.00000	    0.00000	 138.0	 1	    1.10000	    0.90000;
	50475	 2	 0.0	 0.0	 0.0	 0.0	 34	    1.00000	    0.00000	 230.0	 1	    1.10000	    0.90000;
	50476	 2	 0.0	 0.0	 0.0	 0.0	 34	    1.00000	    0.00000	 345.0	 1	    1.10000	    0.90000;
	50477	 2	 0.0	 0.0	 0.0	 0.0	 34	    1.00000	    0.00000	 345.0	 1	    1.10000	    0.90000;
	50478	 2	 0.0	 0.0	 0.0	 0.0	 34	    1.00000	    0.00000	 138.0	 1	    1.10000	    0.90000;
	50479	 2	 0.0	 0.0	 0.0	 0.0	 34	    1.00000	    0.00000	 345.0	 1	    1.10000	    0.90000;
	50480	 1	 0.0	 0.0	 0.0	 0.0	 34	    1.00000	    0.00000	 345.0	 1	    1.10000	    0.90000;
	50481	 2	 0.0	 0.0	 0.0	 0.0	 34	    1.00000	    0.00000	 345.0	 1	    1.10000	    0.90000;
	50482	 1	 0.0	 0.0	 0.0	 0.0	 34	    1.00000	    0.00000	 345.0	 1	    1.10000	    0.90000;
	50483	 2	 0.0	 0.0	 0.0	 0.0	 34	    1.00000	    0.00000	 138.0	 1	    1.10000	    0.90000;
	50484	 1	 0.0	 0.0	 0.0	 0.0	 34	    1.00000	    0.00000	 138.0	 1	    1.10000	    0.90000;
	50485	 2	 0.0	 0.0	 0.0	 0.0	 34	    1.00000	    0.00000	 345.0	 1	    1.10000	    0.90000;
	50486	 2	 0.0	 0.0	 0.0	 0.0	 34	    1.00000	    0.00000	 138.0	 1	    1.10000	    0.90000;
	50487	 1	 0.0	 0.0	 0.0	 0.0	 34	    1.00000	    0.00000	 230.0	 1	    1.10000	    0.90000;
	50488	 2	 0.0	 0.0	 0.0	 0.0	 34	    1.00000	    0.00000	 138.0	 1	    1.10000	    0.90000;
	50489	 2	 0.0	 0.0	 0.0	 0.0	 34	    1.00000	    0.00000	 345.0	 1	    1.10000	    0.90000;
	50490	 1	 0.0	 0.0	 0.0	 0.0	 34	    1.00000	    0.00000	 138.0	 1	    1.10000	    0.90000;
	50491	 1	 0.0	 0.0	 0.0	 0.0	 34	    1.00000	    0.00000	 345.0	 1	    1.10000	    0.90000;
	50492	 2	 0.0	 0.0	 0.0	 0.0	 34	    1.00000	    0.00000	 138.0	 1	    1.10000	    0.90000;
	50493	 2	 0.0	 0.0	 0.0	 0.0	 34	    1.00000	    0.00000	 138.0	 1	    1.10000	    0.90000;
	50494	 2	 0.0	 0.0	 0.0	 0.0	 34	    1.00000	    0.00000	 138.0	 1	    1.10000	    0.90000;
	50495	 2	 0.0	 0.0	 0.0	 0.0	 34	    1.00000	    0.00000	 138.0	 1	    1.10000	    0.90000;
	50496	 2	 0.0	 0.0	 0.0	 0.0	 34	    1.00000	    0.00000	 138.0	 1	    1.10000	    0.90000;
	50497	 2	 0.0	 0.0	 0.0	 0.0	 34	    1.00000	    0.00000	 345.0	 1	    1.10000	    0.90000;
	50498	 1	 0.0	 0.0	 0.0	 0.0	 34	    1.00000	    0.00000	 138.0	 1	    1.10000	    0.90000;
	50499	 2	 0.0	 0.0	 0.0	 0.0	 34	    1.00000	    0.00000	 345.0	 1	    1.10000	    0.90000;
	50500	 2	 0.0	 0.0	 0.0	 0.0	 34	    1.00000	    0.00000	 138.0	 1	    1.10000	    0.90000;
	50501	 2	 0.0	 0.0	 0.0	 0.0	 34	    1.00000	    0.00000	 138.0	 1	    1.10000	    0.90000;
	50502	 1	 0.0	 0.0	 0.0	 0.0	 34	    1.00000	    0.00000	 345.0	 1	    1.10000	    0.90000;
	50503	 2	 0.0	 0.0	 0.0	 0.0	 34	    1.00000	    0.00000	 138.0	 1	    1.10000	    0.90000;
	50504	 2	 0.0	 0.0	 0.0	 0.0	 34	    1.00000	    0.00000	 69.0	 1	    1.10000	    0.90000;
	50505	 2	 0.0	 0.0	 0.0	 0.0	 34	    1.00000	    0.00000	 345.0	 1	    1.10000	    0.90000;
	50506	 2	 0.0	 0.0	 0.0	 0.0	 34	    1.00000	    0.00000	 69.0	 1	    1.10000	    0.90000;
	50507	 1	 0.0	 0.0	 0.0	 0.0	 34	    1.00000	    0.00000	 138.0	 1	    1.10000	    0.90000;
	50508	 1	 0.0	 0.0	 0.0	 0.0	 34	    1.00000	    0.00000	 345.0	 1	    1.10000	    0.90000;
	50509	 1	 0.0	 0.0	 0.0	 0.0	 34	    1.00000	    0.00000	 230.0	 1	    1.10000	    0.90000;
	50510	 2	 0.0	 0.0	 0.0	 0.0	 34	    1.00000	    0.00000	 69.0	 1	    1.10000	    0.90000;
	50511	 2	 0.0	 0.0	 0.0	 0.0	 34	    1.00000	    0.00000	 138.0	 1	    1.10000	    0.90000;
	50512	 2	 0.0	 0.0	 0.0	 0.0	 34	    1.00000	    0.00000	 138.0	 1	    1.10000	    0.90000;
	50513	 2	 0.0	 0.0	 0.0	 0.0	 34	    1.00000	    0.00000	 138.0	 1	    1.10000	    0.90000;
	50514	 1	 0.0	 0.0	 0.0	 0.0	 34	    1.00000	    0.00000	 345.0	 1	    1.10000	    0.90000;
	50515	 2	 0.0	 0.0	 0.0	 0.0	 34	    1.00000	    0.00000	 230.0	 1	    1.10000	    0.90000;
	50516	 2	 0.0	 0.0	 0.0	 0.0	 34	    1.00000	    0.00000	 138.0	 1	    1.10000	    0.90000;
	50517	 2	 0.0	 0.0	 0.0	 0.0	 34	    1.00000	    0.00000	 345.0	 1	    1.10000	    0.90000;
	50518	 2	 0.0	 0.0	 0.0	 0.0	 34	    1.00000	    0.00000	 138.0	 1	    1.10000	    0.90000;
	50519	 2	 0.0	 0.0	 0.0	 0.0	 34	    1.00000	    0.00000	 69.0	 1	    1.10000	    0.90000;
	50520	 2	 0.0	 0.0	 0.0	 0.0	 34	    1.00000	    0.00000	 345.0	 1	    1.10000	    0.90000;
	50521	 1	 0.0	 0.0	 0.0	 0.0	 34	    1.00000	    0.00000	 345.0	 1	    1.10000	    0.90000;
	50522	 2	 0.0	 0.0	 0.0	 0.0	 34	    1.00000	    0.00000	 69.0	 1	    1.10000	    0.90000;
	50523	 2	 0.0	 0.0	 0.0	 0.0	 34	    1.00000	    0.00000	 230.0	 1	    1.10000	    0.90000;
	50524	 2	 0.0	 0.0	 0.0	 0.0	 34	    1.00000	    0.00000	 138.0	 1	    1.10000	    0.90000;
	50525	 2	 0.0	 0.0	 0.0	 0.0	 34	    1.00000	    0.00000	 138.0	 1	    1.10000	    0.90000;
	50526	 2	 0.0	 0.0	 0.0	 0.0	 34	    1.00000	    0.00000	 69.0	 1	    1.10000	    0.90000;
	50527	 2	 0.0	 0.0	 0.0	 0.0	 34	    1.00000	    0.00000	 69.0	 1	    1.10000	    0.90000;
	50528	 1	 0.0	 0.0	 0.0	 0.0	 34	    1.00000	    0.00000	 345.0	 1	    1.10000	    0.90000;
	50529	 1	 0.0	 0.0	 0.0	 0.0	 34	    1.00000	    0.00000	 345.0	 1	    1.10000	    0.90000;
	50530	 2	 0.0	 0.0	 0.0	 0.0	 34	    1.00000	    0.00000	 69.0	 1	    1.10000	    0.90000;
	50531	 2	 0.0	 0.0	 0.0	 0.0	 34	    1.00000	    0.00000	 69.0	 1	    1.10000	    0.90000;
	50532	 2	 0.0	 0.0	 0.0	 0.0	 34	    1.00000	    0.00000	 345.0	 1	    1.10000	    0.90000;
	50533	 2	 0.0	 0.0	 0.0	 0.0	 34	    1.00000	    0.00000	 138.0	 1	    1.10000	    0.90000;
	50534	 2	 0.0	 0.0	 0.0	 0.0	 34	    1.00000	    0.00000	 69.0	 1	    1.10000	    0.90000;
	50535	 2	 0.0	 0.0	 0.0	 0.0	 34	    1.00000	    0.00000	 69.0	 1	    1.10000	    0.90000;
	50536	 2	 0.0	 0.0	 0.0	 0.0	 34	    1.00000	    0.00000	 138.0	 1	    1.10000	    0.90000;
	50537	 2	 0.0	 0.0	 0.0	 0.0	 34	    1.00000	    0.00000	 138.0	 1	    1.10000	    0.90000;
	50538	 1	 0.0	 0.0	 0.0	 0.0	 34	    1.00000	    0.00000	 345.0	 1	    1.10000	    0.90000;
	50539	 2	 0.0	 0.0	 0.0	 0.0	 34	    1.00000	    0.00000	 138.0	 1	    1.10000	    0.90000;
	50540	 2	 0.0	 0.0	 0.0	 0.0	 34	    1.00000	    0.00000	 69.0	 1	    1.10000	    0.90000;
	50541	 2	 0.0	 0.0	 0.0	 0.0	 34	    1.00000	    0.00000	 138.0	 1	    1.10000	    0.90000;
	50542	 2	 0.0	 0.0	 0.0	 0.0	 34	    1.00000	    0.00000	 69.0	 1	    1.10000	    0.90000;
	50543	 2	 0.0	 0.0	 0.0	 0.0	 34	    1.00000	    0.00000	 69.0	 1	    1.10000	    0.90000;
	50544	 2	 0.0	 0.0	 0.0	 0.0	 34	    1.00000	    0.00000	 138.0	 1	    1.10000	    0.90000;
	50545	 1	 0.0	 0.0	 0.0	 0.0	 34	    1.00000	    0.00000	 138.0	 1	    1.10000	    0.90000;
	50546	 1	 0.0	 0.0	 0.0	 0.0	 34	    1.00000	    0.00000	 138.0	 1	    1.10000	    0.90000;
	50547	 2	 0.0	 0.0	 0.0	 0.0	 34	    1.00000	    0.00000	 69.0	 1	    1.10000	    0.90000;
	50548	 1	 0.0	 0.0	 0.0	 0.0	 34	    1.00000	    0.00000	 345.0	 1	    1.10000	    0.90000;
	50549	 2	 0.0	 0.0	 0.0	 0.0	 34	    1.00000	    0.00000	 138.0	 1	    1.10000	    0.90000;
	53323	 1	 8.98	 4.35	 0.0	 0.0	 34	    1.00000	    0.00000	 69.0	 1	    1.10000	    0.90000;
	53324	 1	 6.02	 3.72	 0.0	 0.0	 34	    1.00000	    0.00000	 69.0	 1	    1.10000	    0.90000;
	53325	 1	 0.0	 0.0	 0.0	 0.0	 34	    1.00000	    0.00000	 138.0	 1	    1.10000	    0.90000;
	53326	 1	 9.32	 4.84	 0.0	 0.0	 34	    1.00000	    0.00000	 69.0	 1	    1.10000	    0.90000;
	53327	 1	 14.74	 5.21	 0.0	 0.0	 34	    1.00000	    0.00000	 69.0	 1	    1.10000	    0.90000;
	53328	 1	 3.28	 1.86	 0.0	 0.0	 34	    1.00000	    0.00000	 69.0	 1	    1.10000	    0.90000;
	53329	 1	 0.0	 0.0	 0.0	 0.0	 34	    1.00000	    0.00000	 138.0	 1	    1.10000	    0.90000;
	53330	 1	 15.17	 7.38	 0.0	 0.0	 34	    1.00000	    0.00000	 69.0	 1	    1.10000	    0.90000;
	53331	 1	 8.65	 3.7	 0.0	 0.0	 34	    1.00000	    0.00000	 138.0	 1	    1.10000	    0.90000;
	53332	 1	 17.59	 4.05	 0.0	 0.0	 34	    1.00000	    0.00000	 69.0	 1	    1.10000	    0.90000;
	53333	 1	 0.0	 0.0	 0.0	 0.0	 34	    1.00000	    0.00000	 138.0	 1	    1.10000	    0.90000;
	53334	 1	 0.0	 0.0	 0.0	 0.0	 34	    1.00000	    0.00000	 345.0	 1	    1.10000	    0.90000;
	53335	 1	 0.0	 0.0	 0.0	 0.0	 34	    1.00000	    0.00000	 138.0	 1	    1.10000	    0.90000;
	53336	 1	 6.71	 3.09	 0.0	 0.0	 34	    1.00000	    0.00000	 69.0	 1	    1.10000	    0.90000;
	53337	 1	 4.49	 2.56	 0.0	 0.0	 34	    1.00000	    0.00000	 69.0	 1	    1.10000	    0.90000;
	53338	 1	 0.0	 0.0	 0.0	 0.0	 34	    1.00000	    0.00000	 138.0	 1	    1.10000	    0.90000;
	53339	 1	 5.37	 1.21	 0.0	 0.0	 34	    1.00000	    0.00000	 69.0	 1	    1.10000	    0.90000;
	53340	 1	 26.58	 6.11	 0.0	 0.0	 34	    1.00000	    0.00000	 138.0	 1	    1.10000	    0.90000;
	53341	 1	 5.75	 1.34	 0.0	 0.0	 34	    1.00000	    0.00000	 138.0	 1	    1.10000	    0.90000;
	53342	 1	 10.92	 2.53	 0.0	 0.0	 34	    1.00000	    0.00000	 69.0	 1	    1.10000	    0.90000;
	53343	 1	 49.57	 11.47	 0.0	 0.0	 34	    1.00000	    0.00000	 138.0	 1	    1.10000	    0.90000;
	53344	 1	 33.94	 7.52	 0.0	 0.0	 34	    1.00000	    0.00000	 69.0	 1	    1.10000	    0.90000;
	53345	 1	 53.05	 12.19	 0.0	 0.0	 34	    1.00000	    0.00000	 138.0	 1	    1.10000	    0.90000;
	53346	 1	 18.22	 4.05	 0.0	 0.0	 34	    1.00000	    0.00000	 69.0	 1	    1.10000	    0.90000;
	53347	 1	 13.72	 3.03	 0.0	 0.0	 34	    1.00000	    0.00000	 69.0	 1	    1.10000	    0.90000;
	53348	 1	 7.27	 1.63	 0.0	 0.0	 34	    1.00000	    0.00000	 69.0	 1	    1.10000	    0.90000;
	53349	 1	 6.53	 1.5	 0.0	 0.0	 34	    1.00000	    0.00000	 69.0	 1	    1.10000	    0.90000;
	53350	 1	 0.0	 0.0	 0.0	 0.0	 34	    1.00000	    0.00000	 345.0	 1	    1.10000	    0.90000;
	53351	 1	 27.08	 6.16	 0.0	 0.0	 34	    1.00000	    0.00000	 69.0	 1	    1.10000	    0.90000;
	53352	 1	 10.72	 2.48	 0.0	 0.0	 34	    1.00000	    0.00000	 138.0	 1	    1.10000	    0.90000;
	53353	 1	 4.52	 1.06	 0.0	 0.0	 34	    1.00000	    0.00000	 138.0	 1	    1.10000	    0.90000;
	53354	 1	 6.61	 1.54	 0.0	 0.0	 34	    1.00000	    0.00000	 138.0	 1	    1.10000	    0.90000;
	53355	 1	 7.77	 4.58	 0.0	 0.0	 34	    1.00000	    0.00000	 138.0	 1	    1.10000	    0.90000;
	53356	 1	 2.48	 1.33	 0.0	 0.0	 34	    1.00000	    0.00000	 69.0	 1	    1.10000	    0.90000;
	53357	 1	 0.0	 0.0	 0.0	 0.0	 34	    1.00000	    0.00000	 138.0	 1	    1.10000	    0.90000;
	53358	 1	 3.87	 2.3	 0.0	 0.0	 34	    1.00000	    0.00000	 69.0	 1	    1.10000	    0.90000;
	53359	 1	 12.21	 5.34	 0.0	 0.0	 34	    1.00000	    0.00000	 138.0	 1	    1.10000	    0.90000;
	53360	 1	 5.64	 1.27	 0.0	 0.0	 34	    1.00000	    0.00000	 69.0	 1	    1.10000	    0.90000;
	53361	 1	 7.77	 3.35	 0.0	 0.0	 34	    1.00000	    0.00000	 69.0	 1	    1.10000	    0.90000;
	53362	 1	 9.6	 5.01	 0.0	 0.0	 34	    1.00000	    0.00000	 69.0	 1	    1.10000	    0.90000;
	53363	 1	 3.55	 1.87	 0.0	 0.0	 34	    1.00000	    0.00000	 69.0	 1	    1.10000	    0.90000;
	53364	 1	 11.86	 6.55	 0.0	 0.0	 34	    1.00000	    0.00000	 69.0	 1	    1.10000	    0.90000;
	53365	 1	 7.16	 3.31	 0.0	 0.0	 34	    1.00000	    0.00000	 69.0	 1	    1.10000	    0.90000;
	53366	 1	 0.0	 0.0	 0.0	 0.0	 34	    1.00000	    0.00000	 138.0	 1	    1.10000	    0.90000;
	53367	 1	 4.87	 2.35	 0.0	 0.0	 34	    1.00000	    0.00000	 138.0	 1	    1.10000	    0.90000;
	53368	 1	 2.27	 1.4	 0.0	 0.0	 34	    1.00000	    0.00000	 69.0	 1	    1.10000	    0.90000;
	53369	 1	 0.0	 0.0	 0.0	 0.0	 34	    1.00000	    0.00000	 138.0	 1	    1.10000	    0.90000;
	53370	 1	 4.32	 2.47	 0.0	 0.0	 34	    1.00000	    0.00000	 69.0	 1	    1.10000	    0.90000;
	53371	 1	 9.6	 4.94	 0.0	 0.0	 34	    1.00000	    0.00000	 69.0	 1	    1.10000	    0.90000;
	53372	 1	 4.05	 2.09	 0.0	 0.0	 34	    1.00000	    0.00000	 138.0	 1	    1.10000	    0.90000;
	53373	 1	 20.12	 8.59	 0.0	 0.0	 34	    1.00000	    0.00000	 345.0	 1	    1.10000	    0.90000;
	53374	 1	 0.0	 0.0	 0.0	 0.0	 34	    1.00000	    0.00000	 345.0	 1	    1.10000	    0.90000;
	53375	 1	 4.75	 2.91	 0.0	 0.0	 34	    1.00000	    0.00000	 138.0	 1	    1.10000	    0.90000;
	53376	 1	 6.3	 3.88	 0.0	 0.0	 34	    1.00000	    0.00000	 138.0	 1	    1.10000	    0.90000;
	53377	 1	 0.0	 0.0	 0.0	 0.0	 34	    1.00000	    0.00000	 138.0	 1	    1.10000	    0.90000;
	53378	 1	 20.54	 10.17	 0.0	 0.0	 34	    1.00000	    0.00000	 69.0	 1	    1.10000	    0.90000;
	53379	 1	 6.62	 0.0	 0.0	 0.0	 34	    1.00000	    0.00000	 69.0	 1	    1.10000	    0.90000;
	53380	 1	 8.51	 0.0	 0.0	 0.0	 34	    1.00000	    0.00000	 69.0	 1	    1.10000	    0.90000;
	53381	 1	 5.51	 0.0	 0.0	 0.0	 34	    1.00000	    0.00000	 69.0	 1	    1.10000	    0.90000;
	53382	 1	 6.96	 0.0	 0.0	 0.0	 34	    1.00000	    0.00000	 69.0	 1	    1.10000	    0.90000;
	53383	 1	 2.45	 0.0	 0.0	 0.0	 34	    1.00000	    0.00000	 69.0	 1	    1.10000	    0.90000;
	53384	 1	 20.02	 7.95	 0.0	 0.0	 34	    1.00000	    0.00000	 138.0	 1	    1.10000	    0.90000;
	53385	 1	 0.0	 0.0	 0.0	 0.0	 34	    1.00000	    0.00000	 138.0	 1	    1.10000	    0.90000;
	53386	 1	 0.0	 0.0	 0.0	 0.0	 34	    1.00000	    0.00000	 138.0	 1	    1.10000	    0.90000;
	53387	 1	 0.0	 0.0	 0.0	 0.0	 34	    1.00000	    0.00000	 138.0	 1	    1.10000	    0.90000;
	53388	 1	 15.33	 8.03	 0.0	 0.0	 34	    1.00000	    0.00000	 69.0	 1	    1.10000	    0.90000;
	53389	 1	 7.67	 4.06	 0.0	 0.0	 34	    1.00000	    0.00000	 138.0	 1	    1.10000	    0.90000;
	53390	 1	 6.46	 3.41	 0.0	 0.0	 34	    1.00000	    0.00000	 138.0	 1	    1.10000	    0.90000;
	53391	 1	 6.1	 2.96	 0.0	 0.0	 34	    1.00000	    0.00000	 138.0	 1	    1.10000	    0.90000;
	53392	 1	 7.11	 4.21	 0.0	 0.0	 34	    1.00000	    0.00000	 69.0	 1	    1.10000	    0.90000;
	53393	 1	 7.31	 4.18	 0.0	 0.0	 34	    1.00000	    0.00000	 69.0	 1	    1.10000	    0.90000;
	53394	 1	 0.0	 0.0	 0.0	 0.0	 34	    1.00000	    0.00000	 138.0	 1	    1.10000	    0.90000;
	53395	 1	 4.48	 1.03	 0.0	 0.0	 34	    1.00000	    0.00000	 69.0	 1	    1.10000	    0.90000;