%%%%%%%%%%%%%%%%%%%%%%%%%%%%%%%%%%%%%%%%%%%%%%%%%%%%%%%%%%%%%%%%%%%%%%%%%%%
%%%%                                                                  %%%%%
%%%%    IEEE PES Power Grid Library - Optimal Power Flow - v17.07     %%%%%
%%%%          (https://github.com/power-grid-lib/pglib-opf)           %%%%%
%%%%               Benchmark Group - Typical Operations               %%%%%
%%%%                         26 - June - 2017                         %%%%%
%%%%                                                                  %%%%%
%%%%%%%%%%%%%%%%%%%%%%%%%%%%%%%%%%%%%%%%%%%%%%%%%%%%%%%%%%%%%%%%%%%%%%%%%%%
%
%   Power flow data for Polish system - winter 1999-2000 peak.
%
%   This case represents the Polish 400, 220 and 110 kV networks during
%   winter 1999-2000 peak conditions. It is part of the 7500+ bus
%   Europen UCTE system. To decrease the number of buses, the tie lines
%   to foreign networks were replaced by artificial load or generator
%   buses (180-186). Multiple generators at a bus have been aggregated.
%   Generators that are not centrally dispatchable in the Polish energy
%   market are given a cost of zero.
%
%   Copyright (c) 2010 by Roman Korab <roman.korab@polsl.pl>
%   Licensed under the Creative Commons Attribution 4.0
%   International license, http://creativecommons.org/licenses/by/4.0/
%
function mpc = pglib_opf_case2383wp_mp
mpc.version = '2';
mpc.baseMVA = 100.0;

%% area data
%	area	refbus
mpc.areas = [
	1	 18;
];

%% bus data
%	bus_i	type	Pd	Qd	Gs	Bs	area	Vm	Va	baseKV	zone	Vmax	Vmin
mpc.bus = [
	1	 1	 0.0	 0.0	 0.0	 0.0	 1	    1.07185	    0.20018	 220.0	 1	    1.11000	    0.95000;
	2	 1	 0.0	 0.0	 0.0	 0.0	 1	    1.07290	    0.62725	 220.0	 1	    1.11000	    0.95000;
	3	 1	 0.0	 0.0	 0.0	 0.0	 1	    1.06513	  -23.08891	 220.0	 1	    1.11000	    0.95000;
	4	 1	 0.0	 0.0	 0.0	 0.0	 1	    1.06470	   -5.79541	 220.0	 1	    1.11000	    0.95000;
	5	 1	 0.0	 0.0	 0.0	 0.0	 1	    1.05547	  -17.01754	 220.0	 1	    1.11000	    0.95000;
	6	 1	 0.0	 0.0	 0.0	 0.0	 1	    1.01201	  -11.81803	 400.0	 1	    1.05000	    0.95000;
	7	 1	 0.0	 0.0	 0.0	 0.0	 1	    1.04837	  -18.69504	 220.0	 1	    1.11000	    0.95000;
	8	 1	 0.0	 0.0	 0.0	 0.0	 1	    1.01194	   -8.92469	 400.0	 1	    1.05000	    0.95000;
	9	 1	 0.0	 0.0	 0.0	 0.0	 1	    1.02752	  -14.74470	 400.0	 1	    1.05000	    0.95000;
	10	 2	 12.23	 9.0	 0.0	 0.0	 1	    1.09588	  -17.50195	 220.0	 1	    1.11000	    0.95000;
	11	 1	 0.0	 0.0	 0.0	 0.0	 1	    1.07057	   -4.39613	 220.0	 1	    1.11000	    0.95000;
	12	 1	 0.0	 0.0	 0.0	 0.0	 1	    1.05834	  -19.52857	 220.0	 1	    1.11000	    0.95000;
	13	 1	 0.0	 0.0	 0.0	 0.0	 1	    1.05339	  -18.83038	 220.0	 1	    1.11000	    0.95000;
	14	 1	 0.0	 0.0	 0.0	 0.0	 1	    1.05646	   -3.00822	 220.0	 1	    1.11000	    0.95000;
	15	 1	 0.0	 0.0	 0.0	 0.0	 1	    1.00004	  -13.56533	 400.0	 1	    1.05000	    0.95000;
	16	 2	 54.88	 100.0	 0.0	 0.0	 1	    1.07425	    0.71040	 220.0	 1	    1.11000	    0.95000;
	17	 2	 77.0	 150.0	 0.0	 0.0	 1	    1.07853	    1.48578	 220.0	 1	    1.11000	    0.95000;
	18	 3	 153.0	 350.0	 0.0	 0.0	 1	    1.00031	   -0.00000	 400.0	 1	    1.05000	    0.95000;
	19	 1	 0.0	 0.0	 0.0	 0.0	 1	    1.05619	  -19.10572	 220.0	 1	    1.11000	    0.95000;
	20	 1	 0.0	 0.0	 0.0	 0.0	 1	    1.00748	   -1.33197	 400.0	 1	    1.05000	    0.95000;
	21	 1	 0.0	 0.0	 0.0	 0.0	 1	    1.04771	  -19.13121	 220.0	 1	    1.11000	    0.95000;
	22	 1	 0.0	 0.0	 0.0	 0.0	 1	    1.08157	   -8.26345	 220.0	 1	    1.11000	    0.95000;
	23	 1	 0.0	 0.0	 0.0	 0.0	 1	    1.05613	  -14.84398	 220.0	 2	    1.11000	    0.95000;
	24	 1	 0.0	 0.0	 0.0	 0.0	 1	    1.05303	  -10.80853	 220.0	 2	    1.11000	    0.95000;
	25	 1	 0.0	 0.0	 0.0	 0.0	 1	    1.05504	   -9.27314	 220.0	 2	    1.11000	    0.95000;
	26	 1	 0.0	 0.0	 0.0	 0.0	 1	    1.04891	  -17.72555	 220.0	 2	    1.11000	    0.95000;
	27	 1	 0.0	 0.0	 0.0	 0.0	 1	    1.05066	   -8.51324	 220.0	 2	    1.11000	    0.95000;
	28	 1	 0.0	 0.0	 0.0	 0.0	 1	    1.05065	   -8.50896	 220.0	 2	    1.11000	    0.95000;
	29	 2	 25.98	 60.0	 0.0	 0.0	 1	    1.07948	  -13.07321	 220.0	 2	    1.11000	    0.95000;
	30	 2	 25.98	 60.0	 0.0	 0.0	 1	    1.07939	  -13.07445	 220.0	 2	    1.11000	    0.95000;
	31	 2	 20.98	 50.0	 0.0	 0.0	 1	    1.00963	   -8.69477	 400.0	 2	    1.05000	    0.95000;
	32	 1	 0.0	 0.0	 0.0	 0.0	 1	    1.00961	   -8.73309	 400.0	 2	    1.05000	    0.95000;
	33	 1	 0.0	 0.0	 0.0	 0.0	 1	    1.04557	   -9.29104	 220.0	 2	    1.11000	    0.95000;
	34	 1	 0.0	 0.0	 0.0	 0.0	 1	    1.03341	   -9.17009	 400.0	 2	    1.05000	    0.95000;
	35	 1	 0.0	 0.0	 0.0	 0.0	 1	    1.03345	   -9.17817	 400.0	 2	    1.05000	    0.95000;
	36	 1	 0.0	 0.0	 0.0	 0.0	 1	    0.99336	  -12.03635	 400.0	 2	    1.05000	    0.95000;
	37	 1	 0.0	 0.0	 0.0	 0.0	 1	    1.06031	  -15.88796	 220.0	 2	    1.11000	    0.95000;
	38	 1	 0.0	 0.0	 0.0	 0.0	 1	    1.06031	  -15.88691	 220.0	 2	    1.11000	    0.95000;
	39	 1	 0.0	 0.0	 0.0	 0.0	 1	    1.00528	   -7.84336	 400.0	 2	    1.05000	    0.95000;
	40	 1	 0.0	 0.0	 0.0	 0.0	 1	    1.00527	   -7.83495	 400.0	 2	    1.05000	    0.95000;
	41	 2	 11.99	 30.0	 0.0	 0.0	 1	    1.05694	   -7.16884	 220.0	 2	    1.11000	    0.95000;
	42	 2	 11.99	 30.0	 0.0	 0.0	 1	    1.05695	   -7.18122	 220.0	 2	    1.11000	    0.95000;
	43	 2	 23.98	 60.0	 0.0	 0.0	 1	    1.01219	   -5.56742	 400.0	 2	    1.05000	    0.95000;
	44	 2	 23.98	 60.0	 0.0	 0.0	 1	    1.01221	   -5.57933	 400.0	 2	    1.05000	    0.95000;
	45	 2	 159.84	 75.0	 0.0	 0.0	 1	    1.06502	  -14.16702	 220.0	 2	    1.11000	    0.95000;
	46	 1	 0.0	 0.0	 0.0	 0.0	 1	    1.06504	  -14.16558	 220.0	 2	    1.11000	    0.95000;
	47	 1	 0.0	 0.0	 0.0	 0.0	 1	    1.04750	   -9.26312	 220.0	 2	    1.11000	    0.95000;
	48	 1	 0.0	 0.0	 0.0	 0.0	 1	    1.06362	  -13.18292	 220.0	 2	    1.11000	    0.95000;
	49	 1	 0.0	 0.0	 0.0	 0.0	 1	    1.06365	  -13.18711	 220.0	 2	    1.11000	    0.95000;
	50	 1	 0.0	 0.0	 0.0	 0.0	 1	    1.01899	   -7.34424	 400.0	 2	    1.05000	    0.95000;
	51	 1	 0.0	 0.0	 0.0	 0.0	 1	    1.01909	   -7.36295	 400.0	 2	    1.05000	    0.95000;
	52	 1	 0.0	 0.0	 0.0	 0.0	 1	    1.05469	  -11.68512	 220.0	 2	    1.11000	    0.95000;
	53	 1	 0.0	 0.0	 0.0	 0.0	 1	    1.05540	  -11.54029	 220.0	 2	    1.11000	    0.95000;
	54	 1	 0.0	 0.0	 0.0	 0.0	 1	    1.05514	   -9.20554	 220.0	 2	    1.11000	    0.95000;
	55	 1	 0.0	 0.0	 0.0	 0.0	 1	    1.06637	  -14.95162	 220.0	 2	    1.11000	    0.95000;
	56	 1	 0.0	 0.0	 0.0	 0.0	 1	    1.05461	   -3.16206	 220.0	 3	    1.11000	    0.95000;
	57	 1	 22.98	 10.96	 0.0	 0.0	 1	    1.07239	   -6.04553	 220.0	 3	    1.11000	    0.95000;
	58	 1	 21.98	 5.79	 0.0	 0.0	 1	    1.07263	   -6.04544	 220.0	 3	    1.11000	    0.95000;
	59	 1	 0.0	 0.0	 0.0	 0.0	 1	    1.08898	    1.74459	 220.0	 3	    1.11000	    0.95000;
	60	 1	 0.0	 0.0	 0.0	 0.0	 1	    1.07601	   -2.45403	 220.0	 3	    1.11000	    0.95000;
	61	 1	 0.0	 0.0	 0.0	 0.0	 1	    1.09833	    3.34816	 220.0	 3	    1.11000	    0.95000;
	62	 1	 0.0	 0.0	 0.0	 0.0	 1	    1.09830	    3.34979	 220.0	 3	    1.11000	    0.95000;
	63	 2	 37.37	 52.69	 0.0	 0.0	 1	    1.09439	    2.12705	 220.0	 3	    1.11000	    0.95000;
	64	 2	 35.37	 55.32	 0.0	 0.0	 1	    1.09525	    1.97479	 220.0	 3	    1.11000	    0.95000;
	65	 1	 13.39	 2.02	 0.0	 0.0	 1	    1.08064	    0.22089	 220.0	 3	    1.11000	    0.95000;
	66	 1	 0.0	 0.0	 0.0	 0.0	 1	    1.08495	   -5.50509	 220.0	 3	    1.11000	    0.95000;
	67	 2	 60.4	 92.1	 0.0	 0.0	 1	    1.03105	   -3.64418	 400.0	 3	    1.05000	    0.95000;
	68	 1	 0.0	 0.0	 0.0	 0.0	 1	    1.08257	   -4.35633	 220.0	 3	    1.11000	    0.95000;
	69	 1	 0.0	 0.0	 0.0	 0.0	 1	    1.08391	    0.29322	 220.0	 3	    1.11000	    0.95000;
	70	 1	 0.0	 0.0	 0.0	 0.0	 1	    1.05904	   -2.34375	 220.0	 3	    1.11000	    0.95000;
	71	 1	 0.0	 0.0	 0.0	 0.0	 1	    1.07304	   -0.58991	 220.0	 3	    1.11000	    0.95000;
	72	 1	 0.0	 0.0	 0.0	 0.0	 1	    1.07304	   -0.58991	 220.0	 3	    1.11000	    0.95000;
	73	 1	 0.0	 0.0	 0.0	 0.0	 1	    1.06214	   -1.56037	 220.0	 3	    1.11000	    0.95000;
	74	 1	 0.0	 0.0	 0.0	 0.0	 1	    1.05946	   -2.48360	 220.0	 3	    1.11000	    0.95000;
	75	 1	 0.0	 0.0	 0.0	 0.0	 1	    0.99950	   -2.10614	 400.0	 3	    1.05000	    0.95000;
	76	 1	 0.0	 0.0	 0.0	 0.0	 1	    0.99945	   -2.11026	 400.0	 3	    1.05000	    0.95000;
	77	 1	 0.0	 0.0	 0.0	 0.0	 1	    1.07122	   -1.16656	 220.0	 3	    1.11000	    0.95000;
	78	 1	 0.0	 0.0	 0.0	 0.0	 1	    1.07040	   -3.27307	 220.0	 3	    1.11000	    0.95000;
	79	 1	 0.0	 0.0	 0.0	 0.0	 1	    1.08219	    0.19142	 220.0	 3	    1.11000	    0.95000;
	80	 1	 0.0	 0.0	 0.0	 0.0	 1	    1.07305	   -5.99339	 220.0	 3	    1.11000	    0.95000;
	81	 1	 0.0	 0.0	 0.0	 0.0	 1	    1.07306	   -5.99313	 220.0	 3	    1.11000	    0.95000;
	82	 1	 0.0	 0.0	 0.0	 0.0	 1	    1.08961	    2.27071	 220.0	 3	    1.11000	    0.95000;
	83	 2	 15.99	 22.97	 0.0	 0.0	 1	    1.08410	    0.32095	 220.0	 3	    1.11000	    0.95000;
	84	 2	 15.79	 22.27	 0.0	 0.0	 1	    1.08422	    0.31986	 220.0	 3	    1.11000	    0.95000;
	85	 2	 9.99	 17.01	 0.0	 0.0	 1	    1.07391	   -1.05345	 220.0	 3	    1.11000	    0.95000;
	86	 2	 9.99	 16.66	 0.0	 0.0	 1	    1.07382	   -1.05119	 220.0	 3	    1.11000	    0.95000;
	87	 1	 11.09	 16.22	 0.0	 0.0	 1	    1.07008	   -1.55355	 220.0	 3	    1.11000	    0.95000;
	88	 1	 0.0	 0.0	 0.0	 0.0	 1	    1.07011	   -1.55417	 220.0	 3	    1.11000	    0.95000;
	89	 1	 0.0	 0.0	 0.0	 0.0	 1	    1.09161	    0.01220	 220.0	 3	    1.11000	    0.95000;
	90	 1	 0.0	 0.0	 0.0	 0.0	 1	    1.07591	   -0.54642	 220.0	 3	    1.11000	    0.95000;
	91	 1	 0.0	 0.0	 0.0	 0.0	 1	    1.08203	    0.58758	 220.0	 3	    1.11000	    0.95000;
	92	 1	 0.0	 0.0	 0.0	 0.0	 1	    0.98751	   -4.94628	 400.0	 3	    1.05000	    0.95000;
	93	 2	 9.99	 16.39	 0.0	 0.0	 1	    1.09155	    1.03616	 220.0	 3	    1.11000	    0.95000;
	94	 1	 0.0	 0.0	 0.0	 0.0	 1	    1.09152	    1.03484	 220.0	 3	    1.11000	    0.95000;
	95	 2	 6.89	 8.15	 0.0	 0.0	 1	    1.09792	    0.80344	 220.0	 3	    1.11000	    0.95000;
	96	 1	 0.0	 0.0	 0.0	 0.0	 1	    1.09792	    0.79889	 220.0	 3	    1.11000	    0.95000;
	97	 2	 8.69	 5.26	 0.0	 0.0	 1	    1.07148	   -3.70964	 220.0	 3	    1.11000	    0.95000;
	98	 1	 0.0	 0.0	 0.0	 0.0	 1	    1.00914	   -6.43568	 400.0	 3	    1.05000	    0.95000;
	99	 1	 0.0	 0.0	 0.0	 0.0	 1	    1.00919	   -6.42614	 400.0	 3	    1.05000	    0.95000;
	100	 1	 0.0	 0.0	 0.0	 0.0	 1	    1.00237	   -4.52620	 400.0	 3	    1.05000	    0.95000;
	101	 1	 0.0	 0.0	 0.0	 0.0	 1	    1.00242	   -4.51727	 400.0	 3	    1.05000	    0.95000;
	102	 1	 0.0	 0.0	 0.0	 0.0	 1	    1.09407	    0.09172	 220.0	 3	    1.11000	    0.95000;
	103	 2	 18.09	 23.76	 0.0	 0.0	 1	    1.07570	   -0.64658	 220.0	 3	    1.11000	    0.95000;
	104	 2	 33.68	 46.11	 0.0	 0.0	 1	    1.07590	   -0.63978	 220.0	 3	    1.11000	    0.95000;
	105	 2	 33.78	 62.95	 0.0	 0.0	 1	    0.97185	   -4.43051	 400.0	 3	    1.05000	    0.95000;
	106	 1	 0.0	 0.0	 0.0	 0.0	 1	    0.97203	   -4.44148	 400.0	 3	    1.05000	    0.95000;
	107	 1	 0.0	 0.0	 0.0	 0.0	 1	    1.05773	   -2.67790	 220.0	 3	    1.11000	    0.95000;
	108	 1	 0.0	 0.0	 0.0	 0.0	 1	    1.05953	   -2.49187	 220.0	 3	    1.11000	    0.95000;
	109	 2	 1.0	 22.36	 0.0	 0.0	 1	    1.10171	    4.06810	 220.0	 3	    1.11000	    0.95000;
	110	 2	 1.0	 22.18	 0.0	 0.0	 1	    1.10164	    4.07008	 220.0	 3	    1.11000	    0.95000;
	111	 2	 26.49	 18.0	 0.0	 0.0	 1	    1.11000	   -8.96947	 220.0	 4	    1.11000	    0.95000;
	112	 1	 0.0	 0.0	 0.0	 0.0	 1	    1.10989	   -8.96789	 220.0	 4	    1.11000	    0.95000;
	113	 1	 0.0	 0.0	 0.0	 0.0	 1	    1.06070	  -19.19229	 220.0	 4	    1.11000	    0.95000;
	114	 1	 0.0	 0.0	 0.0	 0.0	 1	    1.07398	  -18.02049	 220.0	 4	    1.11000	    0.95000;
	115	 1	 0.0	 0.0	 0.0	 0.0	 1	    0.98587	  -15.51911	 400.0	 4	    1.05000	    0.95000;
	116	 1	 0.0	 0.0	 0.0	 0.0	 1	    0.98584	  -15.51072	 400.0	 4	    1.05000	    0.95000;
	117	 1	 0.0	 0.0	 0.0	 0.0	 1	    1.07339	  -22.75106	 220.0	 4	    1.11000	    0.95000;
	118	 1	 0.0	 0.0	 0.0	 0.0	 1	    1.05168	  -30.00726	 220.0	 4	    1.11000	    0.95000;
	119	 1	 0.0	 0.0	 0.0	 0.0	 1	    1.05168	  -30.00726	 220.0	 4	    1.11000	    0.95000;
	120	 1	 0.0	 0.0	 0.0	 0.0	 1	    1.04220	  -28.72383	 220.0	 4	    1.11000	    0.95000;
	121	 1	 0.0	 0.0	 0.0	 0.0	 1	    1.06878	  -20.33589	 220.0	 4	    1.11000	    0.95000;
	122	 1	 0.0	 0.0	 0.0	 0.0	 1	    1.06878	  -20.33589	 220.0	 4	    1.11000	    0.95000;
	123	 2	 5.5	 7.0	 0.0	 0.0	 1	    1.10991	  -12.54427	 220.0	 4	    1.11000	    0.95000;
	124	 2	 8.79	 17.0	 0.0	 0.0	 1	    1.10993	  -12.54221	 220.0	 4	    1.11000	    0.95000;
	125	 2	 35.7	 18.3	 0.0	 0.0	 1	    1.08889	  -26.74812	 220.0	 4	    1.11000	    0.95000;
	126	 1	 25.28	 15.9	 0.0	 0.0	 1	    1.08878	  -26.73912	 220.0	 4	    1.11000	    0.95000;
	127	 2	 25.71	 15.3	 0.0	 0.0	 1	    1.03812	  -20.24806	 400.0	 4	    1.05000	    0.95000;
	128	 1	 0.0	 0.0	 0.0	 0.0	 1	    1.03805	  -20.25633	 400.0	 4	    1.05000	    0.95000;
	129	 1	 0.0	 0.0	 0.0	 0.0	 1	    1.04448	  -25.00640	 220.0	 4	    1.11000	    0.95000;
	130	 1	 0.0	 0.0	 0.0	 0.0	 1	    1.03022	  -25.60302	 220.0	 4	    1.11000	    0.95000;
	131	 2	 68.67	 70.0	 0.0	 0.0	 1	    1.09855	  -14.84033	 220.0	 4	    1.11000	    0.95000;
	132	 2	 33.0	 45.0	 0.0	 0.0	 1	    1.09868	  -14.86010	 220.0	 4	    1.11000	    0.95000;
	133	 1	 0.0	 0.0	 0.0	 0.0	 1	    1.00430	  -15.09850	 400.0	 4	    1.05000	    0.95000;
	134	 1	 0.0	 0.0	 0.0	 0.0	 1	    1.00432	  -15.09760	 400.0	 4	    1.05000	    0.95000;
	135	 1	 0.0	 0.0	 0.0	 0.0	 1	    1.05221	  -29.94291	 220.0	 4	    1.11000	    0.95000;
	136	 1	 0.0	 0.0	 0.0	 0.0	 1	    1.05221	  -29.94291	 220.0	 4	    1.11000	    0.95000;
	137	 1	 0.0	 0.0	 0.0	 0.0	 1	    0.99668	  -12.48200	 400.0	 4	    1.05000	    0.95000;
	138	 1	 0.0	 0.0	 0.0	 0.0	 1	    0.99668	  -12.48200	 400.0	 4	    1.05000	    0.95000;
	139	 2	 33.2	 22.6	 0.0	 0.0	 1	    1.11000	  -12.73191	 220.0	 4	    1.11000	    0.95000;
	140	 2	 29.23	 19.6	 0.0	 0.0	 1	    1.10999	  -12.74426	 220.0	 4	    1.11000	    0.95000;
	141	 1	 0.0	 0.0	 0.0	 0.0	 1	    1.04810	  -28.41615	 220.0	 4	    1.11000	    0.95000;
	142	 1	 0.0	 0.0	 0.0	 0.0	 1	    1.04877	  -30.21891	 220.0	 4	    1.11000	    0.95000;
	143	 1	 0.0	 0.0	 0.0	 0.0	 1	    1.07194	  -24.17285	 220.0	 4	    1.11000	    0.95000;
	144	 1	 0.0	 0.0	 0.0	 0.0	 1	    1.07185	  -24.17231	 220.0	 4	    1.11000	    0.95000;
	145	 1	 0.0	 0.0	 0.0	 0.0	 1	    0.97830	  -23.77581	 400.0	 4	    1.05000	    0.95000;
	146	 1	 0.0	 0.0	 0.0	 0.0	 1	    0.97830	  -23.77581	 400.0	 4	    1.05000	    0.95000;
	147	 1	 0.0	 0.0	 0.0	 0.0	 1	    1.04208	  -22.67542	 220.0	 4	    1.11000	    0.95000;
	148	 1	 0.0	 0.0	 0.0	 0.0	 1	    1.04213	  -22.66993	 220.0	 4	    1.11000	    0.95000;
	149	 1	 0.0	 0.0	 0.0	 0.0	 1	    1.06863	  -24.88013	 220.0	 4	    1.11000	    0.95000;
	150	 1	 0.0	 0.0	 0.0	 0.0	 1	    1.06351	  -18.58999	 220.0	 4	    1.11000	    0.95000;
	151	 1	 0.0	 0.0	 0.0	 0.0	 1	    1.06353	  -18.59644	 220.0	 4	    1.11000	    0.95000;
	152	 1	 0.0	 0.0	 0.0	 0.0	 1	    1.05731	  -16.25090	 220.0	 4	    1.11000	    0.95000;
	153	 1	 0.0	 0.0	 0.0	 0.0	 1	    1.05731	  -16.25090	 220.0	 4	    1.11000	    0.95000;
	154	 1	 0.0	 0.0	 0.0	 0.0	 1	    1.02590	  -24.50444	 220.0	 4	    1.11000	    0.95000;
	155	 1	 0.0	 0.0	 0.0	 0.0	 1	    1.05293	  -20.98726	 220.0	 5	    1.11000	    0.95000;
	156	 1	 0.0	 0.0	 0.0	 0.0	 1	    1.11000	  -24.09660	 220.0	 5	    1.11000	    0.95000;
	157	 1	 0.0	 0.0	 0.0	 0.0	 1	    1.02592	  -22.23124	 400.0	 5	    1.05000	    0.95000;
	158	 1	 0.0	 0.0	 0.0	 0.0	 1	    1.02589	  -22.22820	 400.0	 5	    1.05000	    0.95000;
	159	 1	 0.0	 0.0	 0.0	 0.0	 1	    1.02517	  -20.85183	 400.0	 5	    1.05000	    0.95000;
	160	 1	 0.0	 0.0	 0.0	 0.0	 1	    1.02522	  -20.85657	 400.0	 5	    1.05000	    0.95000;
	161	 1	 0.0	 0.0	 0.0	 0.0	 1	    1.05167	  -25.42844	 220.0	 5	    1.11000	    0.95000;
	162	 1	 0.0	 0.0	 0.0	 0.0	 1	    1.05168	  -25.42944	 220.0	 5	    1.11000	    0.95000;
	163	 1	 0.0	 0.0	 0.0	 0.0	 1	    1.08437	  -20.87988	 220.0	 5	    1.11000	    0.95000;
	164	 1	 0.0	 0.0	 0.0	 0.0	 1	    1.08435	  -20.88393	 220.0	 5	    1.11000	    0.95000;
	165	 1	 0.0	 0.0	 0.0	 0.0	 1	    0.99660	  -19.99983	 400.0	 5	    1.05000	    0.95000;
	166	 1	 0.0	 0.0	 0.0	 0.0	 1	    1.06513	  -20.18695	 220.0	 5	    1.11000	    0.95000;
	167	 1	 0.0	 0.0	 0.0	 0.0	 1	    1.06516	  -20.18377	 220.0	 5	    1.11000	    0.95000;
	168	 1	 0.0	 0.0	 0.0	 0.0	 1	    1.02661	  -22.60548	 400.0	 5	    1.05000	    0.95000;
	169	 1	 0.0	 0.0	 0.0	 0.0	 1	    1.02659	  -22.61245	 400.0	 5	    1.05000	    0.95000;
	170	 1	 0.0	 0.0	 0.0	 0.0	 1	    1.04969	  -23.63871	 220.0	 5	    1.11000	    0.95000;
	171	 1	 0.0	 0.0	 0.0	 0.0	 1	    1.04972	  -23.63660	 220.0	 5	    1.11000	    0.95000;
	172	 1	 0.0	 0.0	 0.0	 0.0	 1	    1.05927	  -22.12633	 220.0	 5	    1.11000	    0.95000;
	173	 1	 0.0	 0.0	 0.0	 0.0	 1	    1.05923	  -22.12579	 220.0	 5	    1.11000	    0.95000;
	174	 1	 0.0	 0.0	 0.0	 0.0	 1	    1.05705	  -20.37907	 220.0	 5	    1.11000	    0.95000;
	175	 1	 0.0	 0.0	 0.0	 0.0	 1	    1.05703	  -20.38558	 220.0	 5	    1.11000	    0.95000;
	176	 2	 0.0	 40.0	 0.0	 0.0	 1	    1.02859	  -19.23085	 400.0	 5	    1.05000	    0.95000;
	177	 2	 0.0	 40.0	 0.0	 0.0	 1	    1.02875	  -19.23039	 400.0	 5	    1.05000	    0.95000;
	178	 1	 0.0	 0.0	 0.0	 0.0	 1	    1.07728	  -26.13319	 220.0	 5	    1.11000	    0.95000;
	179	 1	 0.0	 0.0	 0.0	 0.0	 1	    1.07732	  -26.12906	 220.0	 5	    1.11000	    0.95000;
	180	 2	 339.85	 49.6	 0.0	 0.0	 2	    0.95000	   -7.44822	 400.0	 6	    1.05000	    0.95000;
	181	 2	 0.0	 0.0	 0.0	 0.0	 3	    1.11000	   -8.12341	 220.0	 6	    1.11000	    0.95000;
	182	 2	 0.0	 0.0	 0.0	 0.0	 5	    1.00737	  -14.81727	 400.0	 6	    1.05000	    0.95000;
	183	 1	 150.0	 0.0	 0.0	 0.0	 3	    1.03958	  -10.12379	 400.0	 6	    1.05000	    0.95000;
	184	 2	 317.34	 50.3	 0.0	 0.0	 2	    1.07984	   -3.72905	 220.0	 6	    1.11000	    0.95000;
	185	 2	 362.43	 36.7	 0.0	 0.0	 2	    0.95000	   -8.32083	 400.0	 6	    1.05000	    0.95000;
	186	 2	 33.33	 1.0	 0.0	 0.0	 5	    1.08855	  -26.87166	 220.0	 6	    1.11000	    0.95000;
	187	 1	 7.12	 1.5	 0.0	 0.0	 1	    1.06144	  -23.27020	 110.0	 1	    1.12000	    0.95000;
	188	 1	 7.63	 1.0	 0.0	 0.0	 1	    1.03267	  -29.14787	 110.0	 1	    1.12000	    0.95000;
	189	 1	 9.77	 8.7	 0.0	 0.0	 1	    0.97903	  -27.15464	 110.0	 1	    1.12000	    0.95000;
	190	 1	 6.12	 1.5	 0.0	 0.0	 1	    1.08618	   -3.91777	 110.0	 1	    1.12000	    0.95000;
	191	 1	 6.12	 1.6	 0.0	 0.0	 1	    1.07212	   -5.25327	 110.0	 1	    1.12000	    0.95000;
	192	 2	 30.56	 12.0	 0.0	 0.0	 1	    1.12000	  -19.68322	 110.0	 1	    1.12000	    0.95000;
	193	 1	 15.28	 3.0	 0.0	 0.0	 1	    1.11786	  -19.56627	 110.0	 1	    1.12000	    0.95000;
	194	 1	 0.0	 0.0	 0.0	 0.0	 1	    1.11796	  -19.82817	 110.0	 1	    1.12000	    0.95000;
	195	 1	 8.14	 2.0	 0.0	 0.0	 1	    1.07071	  -24.09767	 110.0	 1	    1.12000	    0.95000;
	196	 2	 6.92	 1.5	 0.0	 0.0	 1	    1.01602	  -27.92060	 110.0	 1	    1.12000	    0.95000;
	197	 1	 6.92	 1.5	 0.0	 0.0	 1	    1.06431	  -12.69496	 110.0	 1	    1.12000	    0.95000;
	198	 2	 12.32	 1.7	 0.0	 0.0	 1	    1.06478	  -23.98301	 110.0	 1	    1.12000	    0.95000;
	199	 1	 1.43	 0.5	 0.0	 0.0	 1	    1.09503	   -6.44280	 110.0	 1	    1.12000	    0.95000;
	200	 1	 1.08	 0.5	 0.0	 0.0	 1	    1.09755	  -23.07718	 110.0	 1	    1.12000	    0.95000;
	201	 1	 5.61	 0.5	 0.0	 0.0	 1	    1.08528	  -24.68300	 110.0	 1	    1.12000	    0.95000;
	202	 1	 18.34	 2.0	 0.0	 0.0	 1	    1.09047	  -21.24818	 110.0	 1	    1.12000	    0.95000;
	203	 1	 11.1	 1.6	 0.0	 0.0	 1	    1.06902	  -24.05194	 110.0	 1	    1.12000	    0.95000;
	204	 1	 0.0	 0.0	 0.0	 0.0	 1	    1.11976	  -10.48468	 110.0	 1	    1.12000	    0.95000;
	205	 2	 6.92	 2.0	 0.0	 0.0	 1	    1.12000	   -8.38330	 110.0	 1	    1.12000	    0.95000;
	206	 1	 11.2	 1.0	 0.0	 0.0	 1	    1.05231	  -24.88695	 110.0	 1	    1.12000	    0.95000;
	207	 1	 7.32	 1.6	 0.0	 0.0	 1	    1.07380	   -5.03654	 110.0	 1	    1.12000	    0.95000;
	208	 1	 -7.32	 -4.5	 0.0	 0.0	 1	    1.07114	  -13.11902	 110.0	 1	    1.12000	    0.95000;
	209	 1	 9.36	 0.8	 0.0	 0.0	 1	    1.07721	  -25.35494	 110.0	 1	    1.12000	    0.95000;
	210	 1	 15.18	 4.4	 0.0	 0.0	 1	    1.11636	   -8.01550	 110.0	 1	    1.12000	    0.95000;
	211	 1	 8.75	 0.2	 0.0	 0.0	 1	    1.07556	  -25.41670	 110.0	 1	    1.12000	    0.95000;
	212	 1	 10.18	 1.5	 0.0	 0.0	 1	    1.08535	  -22.65311	 110.0	 1	    1.12000	    0.95000;
	213	 2	 -2.04	 -1.0	 0.0	 0.0	 1	    1.05533	  -24.67137	 110.0	 1	    1.12000	    0.95000;
	214	 1	 12.02	 0.5	 0.0	 0.0	 1	    1.06781	  -26.84469	 110.0	 1	    1.12000	    0.95000;
	215	 1	 6.92	 2.0	 0.0	 0.0	 1	    1.11641	   -8.24501	 110.0	 1	    1.12000	    0.95000;
	216	 1	 8.85	 0.5	 0.0	 0.0	 1	    1.08982	   -5.17984	 110.0	 1	    1.12000	    0.95000;
	217	 1	 1.94	 0.4	 0.0	 0.0	 1	    1.11958	  -18.23045	 110.0	 1	    1.12000	    0.95000;
	218	 1	 12.22	 1.5	 0.0	 0.0	 1	    1.07010	  -26.32955	 110.0	 1	    1.12000	    0.95000;
	219	 1	 2.55	 0.5	 0.0	 0.0	 1	    1.08536	  -25.02140	 110.0	 1	    1.12000	    0.95000;
	220	 1	 2.55	 0.5	 0.0	 0.0	 1	    1.05481	  -26.13543	 110.0	 1	    1.12000	    0.95000;
	221	 1	 4.08	 0.5	 0.0	 0.0	 1	    1.01443	  -31.79917	 110.0	 1	    1.12000	    0.95000;
	222	 1	 6.53	 0.4	 0.0	 0.0	 1	    1.09699	  -22.15001	 110.0	 1	    1.12000	    0.95000;
	223	 1	 18.65	 4.0	 0.0	 0.0	 1	    1.07765	  -18.13400	 110.0	 1	    1.12000	    0.95000;
	224	 1	 19.86	 2.5	 0.0	 0.0	 1	    1.05513	  -24.81967	 110.0	 1	    1.12000	    0.95000;
	225	 1	 17.3	 2.0	 0.0	 0.0	 1	    1.03804	  -29.02464	 110.0	 1	    1.12000	    0.95000;
	226	 1	 24.44	 1.5	 0.0	 0.0	 1	    1.08493	  -24.75528	 110.0	 1	    1.12000	    0.95000;
	227	 1	 5.61	 1.0	 0.0	 0.0	 1	    1.08484	  -24.85352	 110.0	 1	    1.12000	    0.95000;
	228	 1	 11.4	 1.1	 0.0	 0.0	 1	    1.06852	   -5.70530	 110.0	 1	    1.12000	    0.95000;
	229	 1	 11.0	 2.7	 0.0	 0.0	 1	    1.10751	  -11.64612	 110.0	 1	    1.12000	    0.95000;
	230	 1	 7.63	 1.0	 0.0	 0.0	 1	    1.01067	  -32.46813	 110.0	 1	    1.12000	    0.95000;
	231	 1	 7.94	 1.1	 0.0	 0.0	 1	    1.08587	  -21.61226	 110.0	 1	    1.12000	    0.95000;
	232	 1	 7.94	 1.1	 0.0	 0.0	 1	    1.05374	  -21.97327	 110.0	 1	    1.12000	    0.95000;
	233	 1	 1.84	 0.8	 0.0	 0.0	 1	    1.07171	  -26.16513	 110.0	 1	    1.12000	    0.95000;
	234	 1	 33.46	 28.0	 0.0	 0.0	 1	    1.07378	   -4.79854	 110.0	 1	    1.12000	    0.95000;
	235	 1	 33.76	 28.0	 0.0	 0.0	 1	    1.07133	   -3.04910	 110.0	 1	    1.12000	    0.95000;
	236	 1	 1.02	 0.5	 0.0	 0.0	 1	    1.05111	  -24.68295	 110.0	 1	    1.12000	    0.95000;
	237	 1	 13.95	 1.7	 0.0	 0.0	 1	    1.07469	  -24.90423	 110.0	 1	    1.12000	    0.95000;
	238	 1	 9.98	 1.0	 0.0	 0.0	 1	    1.10438	  -21.47664	 110.0	 1	    1.12000	    0.95000;
	239	 1	 15.28	 1.5	 0.0	 0.0	 1	    1.09362	  -21.46653	 110.0	 1	    1.12000	    0.95000;
	240	 1	 11.2	 1.5	 0.0	 0.0	 1	    1.01779	  -31.14398	 110.0	 1	    1.12000	    0.95000;
	241	 1	 10.18	 3.0	 0.0	 0.0	 1	    1.04267	  -24.08665	 110.0	 1	    1.12000	    0.95000;
	242	 1	 1.22	 0.1	 0.0	 0.0	 1	    1.05906	  -24.10877	 110.0	 1	    1.12000	    0.95000;
	243	 1	 0.0	 0.0	 0.0	 0.0	 1	    1.10978	  -20.53680	 110.0	 1	    1.12000	    0.95000;
	244	 1	 1.02	 0.0	 0.0	 0.0	 1	    1.09680	  -21.40492	 110.0	 1	    1.12000	    0.95000;
	245	 1	 12.12	 5.4	 0.0	 0.0	 1	    1.11849	   -9.61485	 110.0	 1	    1.12000	    0.95000;
	246	 1	 -8.14	 -3.6	 0.0	 0.0	 1	    1.11817	   -7.82648	 110.0	 1	    1.12000	    0.95000;
	247	 1	 11.2	 1.5	 0.0	 0.0	 1	    1.06809	  -12.39137	 110.0	 1	    1.12000	    0.95000;
	248	 1	 3.06	 0.5	 0.0	 0.0	 1	    1.11152	  -20.52337	 110.0	 1	    1.12000	    0.95000;
	249	 1	 9.16	 0.0	 0.0	 0.0	 1	    1.10054	  -21.44244	 110.0	 1	    1.12000	    0.95000;
	250	 1	 27.71	 3.0	 0.0	 0.0	 1	    1.08953	  -22.07335	 110.0	 1	    1.12000	    0.95000;
	251	 1	 21.38	 4.0	 0.0	 0.0	 1	    1.06999	   -3.28703	 110.0	 1	    1.12000	    0.95000;
	252	 1	 21.38	 4.0	 0.0	 0.0	 1	    1.06851	   -5.65046	 110.0	 1	    1.12000	    0.95000;
	253	 1	 14.87	 4.3	 0.0	 0.0	 1	    1.11632	   -9.46849	 110.0	 1	    1.12000	    0.95000;
	254	 1	 19.86	 3.5	 0.0	 0.0	 1	    1.10547	  -11.34576	 110.0	 1	    1.12000	    0.95000;
	255	 1	 10.18	 1.0	 0.0	 0.0	 1	    1.08616	  -24.12326	 110.0	 1	    1.12000	    0.95000;
	256	 1	 5.61	 0.0	 0.0	 0.0	 1	    1.10538	  -21.76664	 110.0	 1	    1.12000	    0.95000;
	257	 1	 7.12	 0.2	 0.0	 0.0	 1	    1.04808	  -24.26076	 110.0	 1	    1.12000	    0.95000;
	258	 1	 4.08	 0.3	 0.0	 0.0	 1	    1.08768	  -13.53234	 110.0	 1	    1.12000	    0.95000;
	259	 1	 20.87	 4.2	 0.0	 0.0	 1	    1.08674	  -22.35879	 110.0	 1	    1.12000	    0.95000;
	260	 1	 10.69	 1.5	 0.0	 0.0	 1	    1.09400	  -21.25627	 110.0	 1	    1.12000	    0.95000;
	261	 1	 7.94	 2.0	 0.0	 0.0	 1	    1.11544	   -7.93591	 110.0	 1	    1.12000	    0.95000;
	262	 1	 0.2	 0.0	 0.0	 0.0	 1	    1.09400	  -22.38343	 110.0	 1	    1.12000	    0.95000;
	263	 1	 5.3	 1.0	 0.0	 0.0	 1	    1.04840	  -23.41749	 110.0	 1	    1.12000	    0.95000;
	264	 2	 12.22	 1.0	 0.0	 0.0	 1	    1.06652	  -25.74469	 110.0	 1	    1.12000	    0.95000;
	265	 1	 12.22	 1.0	 0.0	 0.0	 1	    1.08934	  -13.50469	 110.0	 1	    1.12000	    0.95000;
	266	 1	 8.34	 1.6	 0.0	 0.0	 1	    1.08351	   -9.42151	 110.0	 1	    1.12000	    0.95000;
	267	 1	 10.38	 3.0	 0.0	 0.0	 1	    1.11809	  -10.44136	 110.0	 1	    1.12000	    0.95000;
	268	 1	 14.87	 3.7	 0.0	 0.0	 1	    1.11869	   -8.49346	 110.0	 1	    1.12000	    0.95000;
	269	 2	 15.28	 4.0	 0.0	 0.0	 1	    1.10337	  -20.46721	 110.0	 1	    1.12000	    0.95000;
	270	 1	 3.67	 0.5	 0.0	 0.0	 1	    1.11744	   -7.94156	 110.0	 1	    1.12000	    0.95000;
	271	 1	 3.67	 0.5	 0.0	 0.0	 1	    1.08528	   -7.53358	 110.0	 1	    1.12000	    0.95000;
	272	 1	 9.26	 3.0	 0.0	 0.0	 1	    1.11554	   -7.92273	 110.0	 1	    1.12000	    0.95000;
	273	 1	 12.93	 3.7	 0.0	 0.0	 1	    1.11613	   -8.24455	 110.0	 1	    1.12000	    0.95000;
	274	 1	 25.67	 7.4	 0.0	 0.0	 1	    1.11743	   -9.56866	 110.0	 1	    1.12000	    0.95000;
	275	 1	 23.22	 6.7	 0.0	 0.0	 1	    1.11831	  -10.49879	 110.0	 1	    1.12000	    0.95000;
	276	 1	 14.26	 5.1	 0.0	 0.0	 1	    1.11340	  -10.01213	 110.0	 1	    1.12000	    0.95000;
	277	 2	 52.14	 20.4	 0.0	 0.0	 1	    1.11832	   -9.89109	 110.0	 1	    1.12000	    0.95000;
	278	 2	 24.95	 9.7	 0.0	 0.0	 1	    1.12000	  -10.41259	 110.0	 1	    1.12000	    0.95000;
	279	 2	 24.95	 9.7	 0.0	 0.0	 1	    1.12000	   -8.17334	 110.0	 1	    1.12000	    0.95000;
	280	 1	 0.0	 0.0	 0.0	 0.0	 1	    1.11817	  -10.46239	 110.0	 1	    1.12000	    0.95000;
	281	 2	 30.66	 11.9	 0.0	 0.0	 1	    1.12000	   -9.49996	 110.0	 1	    1.12000	    0.95000;
	282	 2	 13.14	 5.1	 0.0	 0.0	 1	    1.12000	   -7.95291	 110.0	 1	    1.12000	    0.95000;
	283	 1	 17.02	 0.2	 0.0	 0.0	 1	    1.09989	  -12.33886	 110.0	 1	    1.12000	    0.95000;
	284	 1	 2.55	 0.5	 0.0	 0.0	 1	    1.10251	  -21.13397	 110.0	 1	    1.12000	    0.95000;
	285	 1	 8.14	 1.5	 0.0	 0.0	 1	    1.05902	  -24.80898	 110.0	 1	    1.12000	    0.95000;
	286	 1	 29.75	 4.1	 0.0	 0.0	 1	    1.05562	  -24.97687	 110.0	 1	    1.12000	    0.95000;
	287	 1	 12.22	 4.0	 0.0	 0.0	 1	    1.04378	  -24.02406	 110.0	 1	    1.12000	    0.95000;
	288	 1	 13.14	 3.8	 0.0	 0.0	 1	    1.11688	   -9.48255	 110.0	 1	    1.12000	    0.95000;
	289	 2	 21.28	 6.1	 0.0	 0.0	 1	    1.11651	   -9.79020	 110.0	 1	    1.12000	    0.95000;
	290	 1	 17.32	 3.0	 0.0	 0.0	 1	    1.09827	  -21.67768	 110.0	 1	    1.12000	    0.95000;
	291	 1	 16.81	 5.4	 0.0	 0.0	 1	    1.11884	   -7.99895	 110.0	 1	    1.12000	    0.95000;
	292	 1	 17.32	 5.0	 0.0	 0.0	 1	    1.11683	  -10.00785	 110.0	 1	    1.12000	    0.95000;
	293	 1	 7.43	 2.1	 0.0	 0.0	 1	    1.11750	  -10.08878	 110.0	 1	    1.12000	    0.95000;
	294	 2	 15.28	 3.0	 0.0	 0.0	 1	    1.10004	  -21.44422	 110.0	 1	    1.12000	    0.95000;
	295	 1	 21.28	 3.4	 0.0	 0.0	 1	    1.05813	  -25.28669	 110.0	 1	    1.12000	    0.95000;
	296	 1	 17.63	 5.1	 0.0	 0.0	 1	    1.11749	  -10.09528	 110.0	 1	    1.12000	    0.95000;
	297	 1	 8.55	 2.0	 0.0	 0.0	 1	    1.09598	   -9.47104	 110.0	 1	    1.12000	    0.95000;
	298	 1	 7.02	 1.6	 0.0	 0.0	 1	    1.09418	   -9.61323	 110.0	 1	    1.12000	    0.95000;
	299	 1	 48.06	 13.8	 0.0	 0.0	 1	    1.11348	  -10.00691	 110.0	 1	    1.12000	    0.95000;
	300	 1	 21.38	 9.0	 0.0	 0.0	 1	    1.04676	  -21.66969	 110.0	 1	    1.12000	    0.95000;
	301	 1	 6.22	 1.3	 0.0	 0.0	 1	    1.10444	  -11.87037	 110.0	 1	    1.12000	    0.95000;
	302	 1	 6.12	 1.3	 0.0	 0.0	 1	    1.05723	  -25.35284	 110.0	 1	    1.12000	    0.95000;
	303	 1	 6.32	 0.5	 0.0	 0.0	 1	    1.05649	  -27.44959	 110.0	 1	    1.12000	    0.95000;
	304	 1	 17.83	 5.1	 0.0	 0.0	 1	    1.11582	   -8.18541	 110.0	 1	    1.12000	    0.95000;
	305	 1	 7.53	 1.1	 0.0	 0.0	 1	    1.08294	  -22.86662	 110.0	 1	    1.12000	    0.95000;
	306	 1	 21.38	 4.0	 0.0	 0.0	 1	    1.11004	  -20.59148	 110.0	 1	    1.12000	    0.95000;
	307	 1	 18.34	 4.0	 0.0	 0.0	 1	    1.04392	  -24.61552	 110.0	 1	    1.12000	    0.95000;
	308	 1	 5.1	 0.0	 0.0	 0.0	 1	    1.10781	  -20.76970	 110.0	 1	    1.12000	    0.95000;
	309	 1	 0.0	 0.0	 0.0	 0.0	 1	    1.10796	  -20.25695	 110.0	 1	    1.12000	    0.95000;
	310	 1	 0.0	 0.0	 0.0	 0.0	 1	    1.05460	  -20.49988	 110.0	 1	    1.12000	    0.95000;
	311	 1	 32.4	 5.7	 0.0	 0.0	 1	    1.04827	  -21.31686	 110.0	 1	    1.12000	    0.95000;
	312	 1	 0.0	 0.0	 0.0	 0.0	 1	    1.04828	  -21.31710	 110.0	 1	    1.12000	    0.95000;
	313	 1	 7.12	 0.5	 0.0	 0.0	 1	    1.03690	  -30.22851	 110.0	 1	    1.12000	    0.95000;