%%%%%%%%%%%%%%%%%%%%%%%%%%%%%%%%%%%%%%%%%%%%%%%%%%%%%%%%%%%%%%%%%%%%%%%%%%%
%%%%                                                                  %%%%%
%%%%    IEEE PES Power Grid Library - Optimal Power Flow - v19.05     %%%%%
%%%%          (https://github.com/power-grid-lib/pglib-opf)           %%%%%
%%%%               Benchmark Group - Typical Operations               %%%%%
%%%%                         10 - May - 2019                          %%%%%
%%%%                                                                  %%%%%
%%%%%%%%%%%%%%%%%%%%%%%%%%%%%%%%%%%%%%%%%%%%%%%%%%%%%%%%%%%%%%%%%%%%%%%%%%%
%
%   This is an entirely synthetic 2000 bus case, geographically situated
%   in the US state of Texas. The case is designed with a 500, 230, 161
%   and 115 kV transmission network to serve a load that roughly mimics
%   the actual population of its geographic footprint. The synthetic
%   transmission system was designed by algorithms described in [1] to be
%   statistically similar to actual transmission system models but without
%   modeling any actual lines.
%
%   When publishing results based on this data, please cite:
%
%   [1] A.B. Birchfield, T. Xu, K.M. Gegner, K.S. Shetye, T.J. Overbye,
%       "Grid Structural Characteristics as Validation Criteria for
%       Synthetic Networks," IEEE Transactions on Power Systems,
%       vol. 32, no. 4, pp. 3258-3265, July 2017.
%       DOI: 10.1109/TPWRS.2016.2616385
%
%   This is a synthetic power system model that does not represent the
%   actual grid. It was developed as part of the US ARPA-E GRID DATA
%   research project and contains no CEII.
%
%   One-line diagrams and other data formats available at:
%       https://electricgrids.engr.tamu.edu
%
%   February 3, 2018
%
%   Created from ACTIVSg2000.pwb, saved by
%   PowerWorld Simulator, version 20, build date January 28, 2018,
%   then by MATPOWER 6.
%
%   Copyright (c) 2017-2018 by A.B. Birchfield, T. Xu, K.M. Gegner, K.S. Shetye,
%   and T.J. Overbye
%   Licensed under the Creative Commons Attribution 4.0 International license,
%   http://creativecommons.org/licenses/by/4.0/
%
function mpc = pglib_opf_case2000_tamu
mpc.version = '2';
mpc.baseMVA = 100.0;

%% bus data
%	bus_i	type	Pd	Qd	Gs	Bs	area	Vm	Va	baseKV	zone	Vmax	Vmin
mpc.bus = [
	1001	 1	 20.78	 5.89	 0.0	 0.0	 1	    1.00000	    0.00000	 115.0	 9	    1.10000	    0.90000;
	1002	 1	 15.41	 4.37	 0.0	 0.0	 1	    1.00000	    0.00000	 115.0	 9	    1.10000	    0.90000;
	1003	 1	 0.0	 0.0	 0.0	 0.0	 1	    1.00000	    0.00000	 115.0	 9	    1.10000	    0.90000;
	1004	 2	 0.0	 0.0	 0.0	 0.0	 1	    1.00000	    0.00000	 230.0	 9	    1.10000	    0.90000;
	1005	 1	 0.0	 0.0	 0.0	 0.0	 1	    1.00000	    0.00000	 115.0	 9	    1.10000	    0.90000;
	1006	 2	 0.0	 0.0	 0.0	 0.0	 1	    1.00000	    0.00000	 13.8	 9	    1.10000	    0.90000;
	1007	 1	 7.01	 1.99	 0.0	 -0.82	 1	    1.00000	    0.00000	 115.0	 9	    1.10000	    0.90000;
	1008	 1	 0.0	 0.0	 0.0	 0.0	 1	    1.00000	    0.00000	 115.0	 9	    1.10000	    0.90000;
	1009	 2	 0.0	 0.0	 0.0	 0.0	 1	    1.00000	    0.00000	 13.8	 9	    1.10000	    0.90000;
	1010	 1	 0.0	 0.0	 0.0	 -3.07	 1	    1.00000	    0.00000	 115.0	 9	    1.10000	    0.90000;
	1011	 2	 0.0	 0.0	 0.0	 0.0	 1	    1.00000	    0.00000	 22.0	 9	    1.10000	    0.90000;
	1012	 1	 2.99	 0.85	 0.0	 9.5	 1	    1.00000	    0.00000	 115.0	 9	    1.10000	    0.90000;
	1013	 1	 29.23	 8.28	 0.0	 0.0	 1	    1.00000	    0.00000	 115.0	 9	    1.10000	    0.90000;
	1014	 1	 2.22	 0.63	 0.0	 0.0	 1	    1.00000	    0.00000	 115.0	 9	    1.10000	    0.90000;
	1015	 1	 7.51	 2.13	 0.0	 0.0	 1	    1.00000	    0.00000	 115.0	 9	    1.10000	    0.90000;
	1016	 1	 2.89	 0.82	 0.0	 30.0	 1	    1.00000	    0.00000	 115.0	 9	    1.10000	    0.90000;
	1017	 1	 18.34	 5.2	 0.0	 0.0	 1	    1.00000	    0.00000	 115.0	 9	    1.10000	    0.90000;
	1018	 1	 0.07	 0.02	 0.0	 0.0	 1	    1.00000	    0.00000	 115.0	 9	    1.10000	    0.90000;
	1019	 1	 61.78	 17.5	 0.0	 142.98	 1	    1.00000	    0.00000	 115.0	 9	    1.10000	    0.90000;
	1020	 1	 0.0	 0.0	 0.0	 67.23	 1	    1.00000	    0.00000	 115.0	 9	    1.10000	    0.90000;
	1021	 2	 0.0	 0.0	 0.0	 0.0	 1	    1.00000	    0.00000	 13.8	 9	    1.10000	    0.90000;
	1022	 1	 0.0	 0.0	 0.0	 0.0	 1	    1.00000	    0.00000	 115.0	 9	    1.10000	    0.90000;
	1023	 2	 0.0	 0.0	 0.0	 0.0	 1	    1.00000	    0.00000	 13.8	 9	    1.10000	    0.90000;
	1024	 1	 63.04	 17.86	 0.0	 0.0	 1	    1.00000	    0.00000	 115.0	 9	    1.10000	    0.90000;
	1025	 1	 0.0	 0.0	 0.0	 0.0	 1	    1.00000	    0.00000	 115.0	 9	    1.10000	    0.90000;
	1026	 2	 0.0	 0.0	 0.0	 0.0	 1	    1.00000	    0.00000	 13.8	 9	    1.10000	    0.90000;
	1027	 1	 101.21	 28.68	 0.0	 75.0	 1	    1.00000	    0.00000	 115.0	 9	    1.10000	    0.90000;
	1028	 1	 10.01	 2.84	 0.0	 0.0	 1	    1.00000	    0.00000	 115.0	 9	    1.10000	    0.90000;
	1029	 1	 83.18	 23.57	 0.0	 40.0	 1	    1.00000	    0.00000	 115.0	 9	    1.10000	    0.90000;
	1030	 1	 24.63	 6.98	 0.0	 0.0	 1	    1.00000	    0.00000	 115.0	 9	    1.10000	    0.90000;
	1031	 1	 9.25	 2.62	 0.0	 0.0	 1	    1.00000	    0.00000	 115.0	 9	    1.10000	    0.90000;
	1032	 1	 0.0	 0.0	 0.0	 0.0	 1	    1.00000	    0.00000	 115.0	 9	    1.10000	    0.90000;
	1033	 2	 0.0	 0.0	 0.0	 50.0	 1	    1.00000	    0.00000	 230.0	 9	    1.10000	    0.90000;
	1034	 1	 0.0	 0.0	 0.0	 0.0	 1	    1.00000	    0.00000	 115.0	 9	    1.10000	    0.90000;
	1035	 2	 0.0	 0.0	 0.0	 0.0	 1	    1.00000	    0.00000	 13.8	 9	    1.10000	    0.90000;
	1036	 1	 13.6	 3.85	 0.0	 0.0	 1	    1.00000	    0.00000	 115.0	 9	    1.10000	    0.90000;
	1037	 1	 102.24	 28.97	 0.0	 0.0	 1	    1.00000	    0.00000	 115.0	 9	    1.10000	    0.90000;
	1038	 1	 0.0	 0.0	 0.0	 0.0	 1	    1.00000	    0.00000	 115.0	 9	    1.10000	    0.90000;
	1039	 2	 0.0	 0.0	 0.0	 0.0	 1	    1.00000	    0.00000	 22.0	 9	    1.10000	    0.90000;
	1040	 1	 44.36	 12.57	 0.0	 0.0	 1	    1.00000	    0.00000	 115.0	 9	    1.10000	    0.90000;
	1041	 1	 0.0	 0.0	 0.0	 0.0	 1	    1.00000	    0.00000	 115.0	 9	    1.10000	    0.90000;
	1042	 2	 0.0	 0.0	 0.0	 0.0	 1	    1.00000	    0.00000	 13.8	 9	    1.10000	    0.90000;
	1043	 2	 0.0	 0.0	 0.0	 0.0	 1	    1.00000	    0.00000	 13.8	 9	    1.10000	    0.90000;
	1044	 1	 14.68	 4.16	 0.0	 0.0	 1	    1.00000	    0.00000	 115.0	 9	    1.10000	    0.90000;
	1045	 1	 98.56	 27.93	 0.0	 0.0	 1	    1.00000	    0.00000	 115.0	 9	    1.10000	    0.90000;
	1046	 1	 11.08	 3.14	 0.0	 12.0	 1	    1.00000	    0.00000	 115.0	 9	    1.10000	    0.90000;
	1047	 1	 0.0	 0.0	 0.0	 0.0	 1	    1.00000	    0.00000	 115.0	 9	    1.10000	    0.90000;
	1048	 2	 0.0	 0.0	 0.0	 0.0	 1	    1.00000	    0.00000	 18.0	 9	    1.10000	    0.90000;
	1049	 2	 0.0	 0.0	 0.0	 0.0	 1	    1.00000	    0.00000	 18.0	 9	    1.10000	    0.90000;
	1050	 2	 0.0	 0.0	 0.0	 0.0	 1	    1.00000	    0.00000	 18.0	 9	    1.10000	    0.90000;
	1051	 2	 0.0	 0.0	 0.0	 0.0	 1	    1.00000	    0.00000	 18.0	 9	    1.10000	    0.90000;
	1052	 2	 0.0	 0.0	 0.0	 0.0	 1	    1.00000	    0.00000	 18.0	 9	    1.10000	    0.90000;
	1053	 2	 0.0	 0.0	 0.0	 0.0	 1	    1.00000	    0.00000	 230.0	 9	    1.10000	    0.90000;
	1054	 1	 14.99	 4.25	 0.0	 0.0	 1	    1.00000	    0.00000	 115.0	 9	    1.10000	    0.90000;
	1055	 1	 3.98	 1.13	 0.0	 0.0	 1	    1.00000	    0.00000	 115.0	 9	    1.10000	    0.90000;
	1056	 1	 0.0	 0.0	 0.0	 59.97	 1	    1.00000	    0.00000	 115.0	 9	    1.10000	    0.90000;
	1057	 2	 0.0	 0.0	 0.0	 0.0	 1	    1.00000	    0.00000	 18.0	 9	    1.10000	    0.90000;
	1058	 1	 13.46	 3.81	 0.0	 0.0	 1	    1.00000	    0.00000	 115.0	 9	    1.10000	    0.90000;
	1059	 2	 0.0	 0.0	 0.0	 0.0	 1	    1.00000	    0.00000	 22.0	 9	    1.10000	    0.90000;
	1060	 2	 0.0	 0.0	 0.0	 0.0	 1	    1.00000	    0.00000	 22.0	 9	    1.10000	    0.90000;
	1061	 1	 0.0	 0.0	 0.0	 0.0	 1	    1.00000	    0.00000	 115.0	 9	    1.10000	    0.90000;
	1062	 2	 0.0	 0.0	 0.0	 0.0	 1	    1.00000	    0.00000	 13.8	 9	    1.10000	    0.90000;
	1063	 2	 0.0	 0.0	 0.0	 0.0	 1	    1.00000	    0.00000	 13.8	 9	    1.10000	    0.90000;
	1064	 1	 123.76	 35.07	 0.0	 0.0	 1	    1.00000	    0.00000	 115.0	 9	    1.10000	    0.90000;
	1065	 1	 0.0	 0.0	 0.0	 0.0	 1	    1.00000	    0.00000	 115.0	 9	    1.10000	    0.90000;
	1066	 2	 0.0	 0.0	 0.0	 0.0	 1	    1.00000	    0.00000	 13.8	 9	    1.10000	    0.90000;
	1067	 1	 101.55	 28.77	 0.0	 0.0	 1	    1.00000	    0.00000	 115.0	 9	    1.10000	    0.90000;
	1068	 1	 59.4	 16.83	 0.0	 0.0	 1	    1.00000	    0.00000	 115.0	 9	    1.10000	    0.90000;
	1069	 1	 0.0	 0.0	 0.0	 0.0	 1	    1.00000	    0.00000	 115.0	 9	    1.10000	    0.90000;
	1070	 2	 0.0	 0.0	 0.0	 0.0	 1	    1.00000	    0.00000	 13.8	 9	    1.10000	    0.90000;
	1071	 1	 91.46	 25.91	 0.0	 0.0	 1	    1.00000	    0.00000	 115.0	 9	    1.10000	    0.90000;
	1072	 2	 0.0	 0.0	 0.0	 0.0	 1	    1.00000	    0.00000	 18.0	 9	    1.10000	    0.90000;
	1073	 2	 0.0	 0.0	 0.0	 0.0	 1	    1.00000	    0.00000	 18.0	 9	    1.10000	    0.90000;
	1074	 2	 0.0	 0.0	 0.0	 0.0	 1	    1.00000	    0.00000	 18.0	 9	    1.10000	    0.90000;
	1075	 2	 0.0	 0.0	 0.0	 0.0	 1	    1.00000	    0.00000	 18.0	 9	    1.10000	    0.90000;
	1076	 2	 0.0	 0.0	 0.0	 0.0	 1	    1.00000	    0.00000	 18.0	 9	    1.10000	    0.90000;
	1077	 2	 0.0	 0.0	 0.0	 0.0	 1	    1.00000	    0.00000	 18.0	 9	    1.10000	    0.90000;
	1078	 2	 0.0	 0.0	 0.0	 0.0	 1	    1.00000	    0.00000	 18.0	 9	    1.10000	    0.90000;
	1079	 2	 0.0	 0.0	 0.0	 0.0	 1	    1.00000	    0.00000	 500.0	 9	    1.10000	    0.90000;
	1080	 2	 0.0	 0.0	 0.0	 0.0	 1	    1.00000	    0.00000	 18.0	 9	    1.10000	    0.90000;
	1081	 2	 0.0	 0.0	 0.0	 56.9	 1	    1.00000	    0.00000	 230.0	 9	    1.10000	    0.90000;
	1082	 2	 0.0	 0.0	 0.0	 0.0	 1	    1.00000	    0.00000	 115.0	 9	    1.10000	    0.90000;
	1083	 1	 39.95	 11.32	 0.0	 26.15	 1	    1.00000	    0.00000	 115.0	 9	    1.10000	    0.90000;
	1084	 2	 0.0	 0.0	 0.0	 0.0	 1	    1.00000	    0.00000	 115.0	 9	    1.10000	    0.90000;
	1085	 1	 21.3	 6.03	 0.0	 0.0	 1	    1.00000	    0.00000	 115.0	 9	    1.10000	    0.90000;
	1086	 1	 39.67	 11.24	 0.0	 30.0	 1	    1.00000	    0.00000	 115.0	 9	    1.10000	    0.90000;
	1087	 1	 0.91	 0.26	 0.0	 8.66	 1	    1.00000	    0.00000	 115.0	 9	    1.10000	    0.90000;
	1088	 2	 0.0	 0.0	 0.0	 0.0	 1	    1.00000	    0.00000	 115.0	 9	    1.10000	    0.90000;
	1089	 1	 40.6	 11.5	 0.0	 0.0	 1	    1.00000	    0.00000	 115.0	 9	    1.10000	    0.90000;
	1090	 2	 0.0	 0.0	 0.0	 0.0	 1	    1.00000	    0.00000	 115.0	 9	    1.10000	    0.90000;
	1091	 1	 11.62	 3.29	 0.0	 0.0	 1	    1.00000	    0.00000	 161.0	 9	    1.10000	    0.90000;
	2001	 1	 48.36	 13.7	 0.0	 0.0	 2	    1.00000	    0.00000	 161.0	 11	    1.10000	    0.90000;
	2002	 1	 0.0	 0.0	 0.0	 0.0	 2	    1.00000	    0.00000	 500.0	 11	    1.10000	    0.90000;
	2003	 1	 0.0	 0.0	 0.0	 0.0	 2	    1.00000	    0.00000	 161.0	 11	    1.10000	    0.90000;
	2004	 2	 0.0	 0.0	 0.0	 0.0	 2	    1.00000	    0.00000	 13.8	 11	    1.10000	    0.90000;
	2005	 2	 0.0	 0.0	 0.0	 0.0	 2	    1.00000	    0.00000	 13.8	 11	    1.10000	    0.90000;
	2006	 2	 0.0	 0.0	 0.0	 0.0	 2	    1.00000	    0.00000	 13.8	 11	    1.10000	    0.90000;
	2007	 1	 9.54	 2.7	 0.0	 0.0	 2	    1.00000	    0.00000	 161.0	 11	    1.10000	    0.90000;
	2008	 1	 8.06	 2.28	 0.0	 0.0	 2	    1.00000	    0.00000	 161.0	 10	    1.10000	    0.90000;
	2009	 1	 39.14	 11.09	 0.0	 113.65	 2	    1.00000	    0.00000	 161.0	 11	    1.10000	    0.90000;
	2010	 1	 56.81	 16.09	 0.0	 22.39	 2	    1.00000	    0.00000	 161.0	 10	    1.10000	    0.90000;
	2011	 1	 0.0	 0.0	 0.0	 0.0	 2	    1.00000	    0.00000	 500.0	 10	    1.10000	    0.90000;
	2012	 1	 0.0	 0.0	 0.0	 0.0	 2	    1.00000	    0.00000	 161.0	 10	    1.10000	    0.90000;
	2013	 2	 0.0	 0.0	 0.0	 0.0	 2	    1.00000	    0.00000	 18.0	 10	    1.10000	    0.90000;
	2014	 1	 25.43	 7.2	 0.0	 0.0	 2	    1.00000	    0.00000	 161.0	 10	    1.10000	    0.90000;
	2015	 1	 4.69	 1.33	 0.0	 0.0	 2	    1.00000	    0.00000	 161.0	 11	    1.10000	    0.90000;
	2016	 1	 69.27	 19.63	 0.0	 0.0	 2	    1.00000	    0.00000	 161.0	 11	    1.10000	    0.90000;
	2017	 1	 0.0	 0.0	 0.0	 -200.0	 2	    1.00000	    0.00000	 500.0	 10	    1.10000	    0.90000;
	2018	 1	 0.0	 0.0	 0.0	 0.0	 2	    1.00000	    0.00000	 161.0	 10	    1.10000	    0.90000;
	2019	 2	 0.0	 0.0	 0.0	 0.0	 2	    1.00000	    0.00000	 20.0	 10	    1.10000	    0.90000;
	2020	 1	 47.97	 13.59	 0.0	 0.0	 2	    1.00000	    0.00000	 161.0	 11	    1.10000	    0.90000;
	2021	 1	 0.0	 0.0	 0.0	 0.0	 2	    1.00000	    0.00000	 500.0	 11	    1.10000	    0.90000;
	2022	 1	 11.56	 3.28	 0.0	 0.0	 2	    1.00000	    0.00000	 161.0	 11	    1.10000	    0.90000;
	2023	 2	 0.0	 0.0	 0.0	 0.0	 2	    1.00000	    0.00000	 13.8	 11	    1.10000	    0.90000;
	2024	 2	 0.0	 0.0	 0.0	 0.0	 2	    1.00000	    0.00000	 13.8	 11	    1.10000	    0.90000;
	2025	 1	 39.62	 11.23	 0.0	 0.0	 2	    1.00000	    0.00000	 161.0	 11	    1.10000	    0.90000;
	2026	 1	 18.57	 5.26	 0.0	 0.0	 2	    1.00000	    0.00000	 161.0	 10	    1.10000	    0.90000;
	2027	 1	 3.55	 1.01	 0.0	 0.0	 2	    1.00000	    0.00000	 161.0	 11	    1.10000	    0.90000;
	2028	 1	 14.24	 4.03	 0.0	 0.0	 2	    1.00000	    0.00000	 161.0	 11	    1.10000	    0.90000;
	2029	 1	 3.2	 0.91	 0.0	 0.0	 2	    1.00000	    0.00000	 161.0	 10	    1.10000	    0.90000;
	2030	 1	 47.15	 13.36	 0.0	 0.0	 2	    1.00000	    0.00000	 161.0	 11	    1.10000	    0.90000;
	2031	 1	 5.77	 1.63	 0.0	 0.0	 2	    1.00000	    0.00000	 161.0	 10	    1.10000	    0.90000;
	2032	 1	 3.35	 0.95	 0.0	 0.0	 2	    1.00000	    0.00000	 161.0	 11	    1.10000	    0.90000;
	2033	 1	 13.57	 3.85	 0.0	 0.0	 2	    1.00000	    0.00000	 161.0	 11	    1.10000	    0.90000;
	2034	 1	 5.34	 1.51	 0.0	 0.0	 2	    1.00000	    0.00000	 161.0	 11	    1.10000	    0.90000;
	2035	 1	 4.68	 1.33	 0.0	 0.0	 2	    1.00000	    0.00000	 161.0	 10	    1.10000	    0.90000;
	2036	 1	 41.59	 11.78	 0.0	 0.0	 2	    1.00000	    0.00000	 161.0	 11	    1.10000	    0.90000;
	2037	 1	 3.5	 0.99	 0.0	 0.0	 2	    1.00000	    0.00000	 161.0	 11	    1.10000	    0.90000;
	2038	 1	 2.6	 0.74	 0.0	 0.0	 2	    1.00000	    0.00000	 161.0	 11	    1.10000	    0.90000;
	2039	 1	 5.56	 1.58	 0.0	 0.0	 2	    1.00000	    0.00000	 161.0	 11	    1.10000	    0.90000;
	2040	 1	 15.9	 4.51	 0.0	 0.0	 2	    1.00000	    0.00000	 161.0	 11	    1.10000	    0.90000;
	2041	 1	 0.0	 0.0	 0.0	 0.0	 2	    1.00000	    0.00000	 161.0	 10	    1.10000	    0.90000;
	2042	 2	 0.0	 0.0	 0.0	 0.0	 2	    1.00000	    0.00000	 18.0	 10	    1.10000	    0.90000;
	2043	 1	 4.24	 1.2	 0.0	 0.0	 2	    1.00000	    0.00000	 161.0	 11	    1.10000	    0.90000;
	2044	 1	 27.4	 7.76	 0.0	 0.0	 2	    1.00000	    0.00000	 161.0	 11	    1.10000	    0.90000;
	2045	 1	 22.61	 6.4	 0.0	 0.0	 2	    1.00000	    0.00000	 161.0	 11	    1.10000	    0.90000;
	2046	 1	 22.13	 6.27	 0.0	 0.0	 2	    1.00000	    0.00000	 161.0	 11	    1.10000	    0.90000;
	2047	 1	 14.96	 4.24	 0.0	 0.0	 2	    1.00000	    0.00000	 161.0	 11	    1.10000	    0.90000;
	2048	 1	 6.42	 1.82	 0.0	 0.0	 2	    1.00000	    0.00000	 161.0	 10	    1.10000	    0.90000;
	2049	 1	 11.57	 3.28	 0.0	 0.0	 2	    1.00000	    0.00000	 161.0	 10	    1.10000	    0.90000;
	2050	 1	 3.66	 1.04	 0.0	 0.0	 2	    1.00000	    0.00000	 161.0	 11	    1.10000	    0.90000;
	2051	 1	 17.85	 5.06	 0.0	 0.0	 2	    1.00000	    0.00000	 161.0	 11	    1.10000	    0.90000;
	2052	 1	 24.84	 7.04	 0.0	 0.0	 2	    1.00000	    0.00000	 161.0	 10	    1.10000	    0.90000;
	2053	 1	 29.13	 8.25	 0.0	 0.0	 2	    1.00000	    0.00000	 161.0	 11	    1.10000	    0.90000;
	2054	 1	 0.0	 0.0	 0.0	 0.0	 2	    1.00000	    0.00000	 500.0	 11	    1.10000	    0.90000;
	2055	 1	 49.62	 14.06	 0.0	 0.0	 2	    1.00000	    0.00000	 161.0	 11	    1.10000	    0.90000;
	2056	 2	 0.0	 0.0	 0.0	 0.0	 2	    1.00000	    0.00000	 18.0	 11	    1.10000	    0.90000;
	2057	 2	 0.0	 0.0	 0.0	 0.0	 2	    1.00000	    0.00000	 18.0	 11	    1.10000	    0.90000;
	2058	 1	 0.0	 0.0	 0.0	 0.0	 2	    1.00000	    0.00000	 161.0	 10	    1.10000	    0.90000;
	2059	 2	 0.0	 0.0	 0.0	 0.0	 2	    1.00000	    0.00000	 13.8	 10	    1.10000	    0.90000;
	2060	 1	 3.8	 1.08	 0.0	 0.0	 2	    1.00000	    0.00000	 161.0	 11	    1.10000	    0.90000;
	2061	 1	 0.0	 0.0	 0.0	 0.0	 2	    1.00000	    0.00000	 161.0	 10	    1.10000	    0.90000;
	2062	 2	 0.0	 0.0	 0.0	 0.0	 2	    1.00000	    0.00000	 18.0	 10	    1.10000	    0.90000;
	2063	 1	 65.62	 18.59	 0.0	 40.0	 2	    1.00000	    0.00000	 161.0	 11	    1.10000	    0.90000;
	2064	 1	 10.05	 2.85	 0.0	 0.0	 2	    1.00000	    0.00000	 161.0	 11	    1.10000	    0.90000;
	2065	 1	 78.36	 22.2	 0.0	 94.98	 2	    1.00000	    0.00000	 161.0	 11	    1.10000	    0.90000;
	2066	 1	 7.11	 2.02	 0.0	 0.0	 2	    1.00000	    0.00000	 161.0	 10	    1.10000	    0.90000;
	2067	 1	 53.97	 15.29	 0.0	 0.0	 2	    1.00000	    0.00000	 161.0	 11	    1.10000	    0.90000;
	2068	 1	 5.76	 1.63	 0.0	 0.0	 2	    1.00000	    0.00000	 161.0	 11	    1.10000	    0.90000;
	2069	 1	 21.92	 6.21	 0.0	 110.69	 2	    1.00000	    0.00000	 161.0	 11	    1.10000	    0.90000;
	2070	 1	 0.0	 0.0	 0.0	 0.0	 2	    1.00000	    0.00000	 161.0	 11	    1.10000	    0.90000;
	2071	 2	 0.0	 0.0	 0.0	 0.0	 2	    1.00000	    0.00000	 18.0	 11	    1.10000	    0.90000;
	2072	 1	 9.71	 2.75	 0.0	 0.0	 2	    1.00000	    0.00000	 161.0	 11	    1.10000	    0.90000;
	2073	 1	 0.0	 0.0	 0.0	 0.0	 2	    1.00000	    0.00000	 161.0	 10	    1.10000	    0.90000;
	2074	 1	 0.0	 0.0	 0.0	 0.0	 2	    1.00000	    0.00000	 115.0	 10	    1.10000	    0.90000;
	2075	 1	 0.0	 0.0	 0.0	 0.0	 2	    1.00000	    0.00000	 115.0	 10	    1.10000	    0.90000;
	2076	 2	 0.0	 0.0	 0.0	 0.0	 2	    1.00000	    0.00000	 24.0	 10	    1.10000	    0.90000;
	2077	 1	 0.0	 0.0	 0.0	 0.0	 2	    1.00000	    0.00000	 161.0	 11	    1.10000	    0.90000;
	2078	 2	 0.0	 0.0	 0.0	 0.0	 2	    1.00000	    0.00000	 13.8	 11	    1.10000	    0.90000;
	2079	 1	 4.48	 1.27	 0.0	 0.0	 2	    1.00000	    0.00000	 161.0	 10	    1.10000	    0.90000;
	2080	 1	 16.93	 4.8	 0.0	 0.0	 2	    1.00000	    0.00000	 161.0	 11	    1.10000	    0.90000;
	2081	 1	 4.46	 1.26	 0.0	 0.0	 2	    1.00000	    0.00000	 161.0	 11	    1.10000	    0.90000;
	2082	 1	 59.03	 16.73	 0.0	 0.0	 2	    1.00000	    0.00000	 161.0	 11	    1.10000	    0.90000;
	2083	 2	 0.0	 0.0	 0.0	 0.0	 2	    1.00000	    0.00000	 20.0	 11	    1.10000	    0.90000;
	2084	 2	 0.0	 0.0	 0.0	 0.0	 2	    1.00000	    0.00000	 20.0	 11	    1.10000	    0.90000;
	2085	 2	 0.0	 0.0	 0.0	 0.0	 2	    1.00000	    0.00000	 20.0	 11	    1.10000	    0.90000;
	2086	 1	 2.19	 0.62	 0.0	 0.0	 2	    1.00000	    0.00000	 161.0	 11	    1.10000	    0.90000;
	2087	 1	 7.9	 2.24	 0.0	 0.0	 2	    1.00000	    0.00000	 161.0	 10	    1.10000	    0.90000;
	2088	 1	 0.0	 0.0	 0.0	 0.0	 2	    1.00000	    0.00000	 161.0	 11	    1.10000	    0.90000;
	2089	 2	 0.0	 0.0	 0.0	 0.0	 2	    1.00000	    0.00000	 24.0	 11	    1.10000	    0.90000;
	2090	 1	 2.42	 0.69	 0.0	 0.0	 2	    1.00000	    0.00000	 161.0	 11	    1.10000	    0.90000;
	2091	 1	 17.05	 4.83	 0.0	 0.0	 2	    1.00000	    0.00000	 161.0	 10	    1.10000	    0.90000;
	2092	 1	 24.11	 6.83	 0.0	 0.0	 2	    1.00000	    0.00000	 161.0	 11	    1.10000	    0.90000;
	2093	 1	 0.0	 0.0	 0.0	 0.0	 2	    1.00000	    0.00000	 161.0	 10	    1.10000	    0.90000;
	2094	 2	 0.0	 0.0	 0.0	 0.0	 2	    1.00000	    0.00000	 13.8	 10	    1.10000	    0.90000;
	2095	 2	 0.0	 0.0	 0.0	 0.0	 2	    1.00000	    0.00000	 13.8	 10	    1.10000	    0.90000;
	2096	 1	 0.0	 0.0	 0.0	 -122.33	 2	    1.00000	    0.00000	 500.0	 10	    1.10000	    0.90000;
	2097	 1	 0.0	 0.0	 0.0	 0.0	 2	    1.00000	    0.00000	 230.0	 10	    1.10000	    0.90000;
	2098	 1	 0.0	 0.0	 0.0	 0.0	 2	    1.00000	    0.00000	 161.0	 10	    1.10000	    0.90000;
	2099	 2	 0.0	 0.0	 0.0	 0.0	 2	    1.00000	    0.00000	 18.0	 10	    1.10000	    0.90000;
	2100	 2	 0.0	 0.0	 0.0	 0.0	 2	    1.00000	    0.00000	 18.0	 10	    1.10000	    0.90000;
	2101	 1	 0.0	 0.0	 0.0	 0.0	 2	    1.00000	    0.00000	 500.0	 11	    1.10000	    0.90000;
	2102	 1	 0.0	 0.0	 0.0	 0.0	 2	    1.00000	    0.00000	 161.0	 11	    1.10000	    0.90000;
	2103	 2	 0.0	 0.0	 0.0	 0.0	 2	    1.00000	    0.00000	 20.0	 11	    1.10000	    0.90000;
	2104	 2	 0.0	 0.0	 0.0	 0.0	 2	    1.00000	    0.00000	 20.0	 11	    1.10000	    0.90000;
	2105	 2	 0.0	 0.0	 0.0	 0.0	 2	    1.00000	    0.00000	 20.0	 11	    1.10000	    0.90000;
	2106	 1	 14.4	 4.08	 0.0	 0.0	 2	    1.00000	    0.00000	 161.0	 11	    1.10000	    0.90000;
	2107	 1	 74.15	 21.01	 0.0	 0.0	 2	    1.00000	    0.00000	 161.0	 11	    1.10000	    0.90000;
	2108	 1	 2.14	 0.61	 0.0	 0.0	 2	    1.00000	    0.00000	 161.0	 10	    1.10000	    0.90000;
	2109	 1	 33.81	 9.58	 0.0	 0.0	 2	    1.00000	    0.00000	 161.0	 11	    1.10000	    0.90000;
	2110	 1	 8.59	 2.43	 0.0	 40.13	 2	    1.00000	    0.00000	 161.0	 11	    1.10000	    0.90000;
	2111	 1	 13.95	 3.95	 0.0	 0.0	 2	    1.00000	    0.00000	 161.0	 11	    1.10000	    0.90000;
	2112	 1	 4.54	 1.29	 0.0	 0.0	 2	    1.00000	    0.00000	 161.0	 11	    1.10000	    0.90000;
	2113	 1	 0.0	 0.0	 0.0	 0.0	 2	    1.00000	    0.00000	 500.0	 11	    1.10000	    0.90000;
	2114	 1	 70.78	 20.05	 0.0	 0.0	 2	    1.00000	    0.00000	 161.0	 11	    1.10000	    0.90000;
	2115	 2	 0.0	 0.0	 0.0	 0.0	 2	    1.00000	    0.00000	 13.8	 11	    1.10000	    0.90000;
	2116	 2	 0.0	 0.0	 0.0	 0.0	 2	    1.00000	    0.00000	 13.8	 11	    1.10000	    0.90000;
	2117	 2	 0.0	 0.0	 0.0	 0.0	 2	    1.00000	    0.00000	 13.8	 11	    1.10000	    0.90000;
	2118	 2	 0.0	 0.0	 0.0	 0.0	 2	    1.00000	    0.00000	 13.8	 11	    1.10000	    0.90000;
	2119	 2	 0.0	 0.0	 0.0	 0.0	 2	    1.00000	    0.00000	 13.8	 11	    1.10000	    0.90000;
	2120	 2	 0.0	 0.0	 0.0	 0.0	 2	    1.00000	    0.00000	 13.8	 11	    1.10000	    0.90000;
	2121	 1	 2.33	 0.66	 0.0	 0.0	 2	    1.00000	    0.00000	 161.0	 11	    1.10000	    0.90000;
	2122	 1	 6.72	 1.9	 0.0	 0.0	 2	    1.00000	    0.00000	 161.0	 11	    1.10000	    0.90000;
	2123	 2	 0.0	 0.0	 0.0	 0.0	 2	    1.00000	    0.00000	 161.0	 10	    1.10000	    0.90000;
	2124	 1	 21.29	 6.03	 0.0	 0.0	 2	    1.00000	    0.00000	 161.0	 11	    1.10000	    0.90000;
	2125	 1	 4.06	 1.15	 0.0	 0.0	 2	    1.00000	    0.00000	 161.0	 11	    1.10000	    0.90000;
	2126	 1	 14.24	 4.03	 0.0	 0.0	 2	    1.00000	    0.00000	 161.0	 11	    1.10000	    0.90000;
	2127	 2	 0.0	 0.0	 0.0	 -155.97	 2	    1.00000	    0.00000	 500.0	 10	    1.10000	    0.90000;
	2128	 1	 0.0	 0.0	 0.0	 0.0	 2	    1.00000	    0.00000	 161.0	 10	    1.10000	    0.90000;
	2129	 1	 6.63	 1.88	 0.0	 0.0	 2	    1.00000	    0.00000	 161.0	 11	    1.10000	    0.90000;
	2130	 1	 0.0	 0.0	 0.0	 0.0	 2	    1.00000	    0.00000	 161.0	 10	    1.10000	    0.90000;
	2131	 1	 0.0	 0.0	 0.0	 0.0	 2	    1.00000	    0.00000	 115.0	 10	    1.10000	    0.90000;
	2132	 1	 11.94	 3.38	 0.0	 10.0	 2	    1.00000	    0.00000	 115.0	 10	    1.10000	    0.90000;
	2133	 1	 5.68	 1.61	 0.0	 0.0	 2	    1.00000	    0.00000	 161.0	 11	    1.10000	    0.90000;
	3001	 1	 0.0	 0.0	 0.0	 0.0	 3	    1.00000	    0.00000	 230.0	 28	    1.10000	    0.90000;
	3002	 1	 112.86	 31.98	 0.0	 0.0	 3	    1.00000	    0.00000	 115.0	 28	    1.10000	    0.90000;
	3003	 1	 0.0	 0.0	 0.0	 0.0	 3	    1.00000	    0.00000	 115.0	 27	    1.10000	    0.90000;
	3004	 2	 0.0	 0.0	 0.0	 0.0	 3	    1.00000	    0.00000	 18.0	 27	    1.10000	    0.90000;
	3005	 1	 7.34	 2.08	 0.0	 0.0	 3	    1.00000	    0.00000	 115.0	 28	    1.10000	    0.90000;
	3006	 1	 7.35	 2.08	 0.0	 0.0	 3	    1.00000	    0.00000	 115.0	 27	    1.10000	    0.90000;
	3007	 1	 14.96	 4.24	 0.0	 0.0	 3	    1.00000	    0.00000	 115.0	 27	    1.10000	    0.90000;
	3008	 1	 19.81	 5.61	 0.0	 0.0	 3	    1.00000	    0.00000	 115.0	 27	    1.10000	    0.90000;
	3009	 1	 12.54	 3.55	 0.0	 0.0	 3	    1.00000	    0.00000	 115.0	 28	    1.10000	    0.90000;
	3010	 1	 4.67	 1.32	 0.0	 0.0	 3	    1.00000	    0.00000	 115.0	 28	    1.10000	    0.90000;
	3011	 1	 27.14	 7.69	 0.0	 0.0	 3	    1.00000	    0.00000	 115.0	 28	    1.10000	    0.90000;
	3012	 1	 0.56	 0.16	 0.0	 0.0	 3	    1.00000	    0.00000	 115.0	 28	    1.10000	    0.90000;
	3013	 1	 64.56	 18.29	 0.0	 65.0	 3	    1.00000	    0.00000	 115.0	 27	    1.10000	    0.90000;
	3014	 1	 22.0	 6.23	 0.0	 0.0	 3	    1.00000	    0.00000	 115.0	 28	    1.10000	    0.90000;
	3015	 1	 5.36	 1.52	 0.0	 0.0	 3	    1.00000	    0.00000	 115.0	 27	    1.10000	    0.90000;
	3016	 1	 0.0	 0.0	 0.0	 0.0	 3	    1.00000	    0.00000	 115.0	 27	    1.10000	    0.90000;
	3017	 2	 0.0	 0.0	 0.0	 0.0	 3	    1.00000	    0.00000	 18.0	 27	    1.10000	    0.90000;
	3018	 1	 0.0	 0.0	 0.0	 0.0	 3	    1.00000	    0.00000	 230.0	 27	    1.10000	    0.90000;
	3019	 1	 0.0	 0.0	 0.0	 27.84	 3	    1.00000	    0.00000	 115.0	 27	    1.10000	    0.90000;
	3020	 2	 0.0	 0.0	 0.0	 0.0	 3	    1.00000	    0.00000	 13.8	 27	    1.10000	    0.90000;
	3021	 1	 1.94	 0.55	 0.0	 0.0	 3	    1.00000	    0.00000	 115.0	 27	    1.10000	    0.90000;
	3022	 1	 24.59	 6.97	 0.0	 0.0	 3	    1.00000	    0.00000	 115.0	 27	    1.10000	    0.90000;
	3023	 1	 10.41	 2.95	 0.0	 46.37	 3	    1.00000	    0.00000	 115.0	 27	    1.10000	    0.90000;
	3024	 1	 10.13	 2.87	 0.0	 0.0	 3	    1.00000	    0.00000	 115.0	 28	    1.10000	    0.90000;
	3025	 1	 13.67	 3.87	 0.0	 0.0	 3	    1.00000	    0.00000	 115.0	 28	    1.10000	    0.90000;
	3026	 1	 0.0	 0.0	 0.0	 0.0	 3	    1.00000	    0.00000	 230.0	 27	    1.10000	    0.90000;
	3027	 1	 0.0	 0.0	 0.0	 0.0	 3	    1.00000	    0.00000	 115.0	 27	    1.10000	    0.90000;
	3028	 2	 0.0	 0.0	 0.0	 0.0	 3	    1.00000	    0.00000	 18.0	 27	    1.10000	    0.90000;
	3029	 1	 4.87	 1.38	 0.0	 0.0	 3	    1.00000	    0.00000	 115.0	 28	    1.10000	    0.90000;
	3030	 1	 129.72	 36.75	 0.0	 80.0	 3	    1.00000	    0.00000	 115.0	 27	    1.10000	    0.90000;
	3031	 1	 14.73	 4.17	 0.0	 0.0	 3	    1.00000	    0.00000	 115.0	 27	    1.10000	    0.90000;
	3032	 1	 72.86	 20.64	 0.0	 0.0	 3	    1.00000	    0.00000	 115.0	 27	    1.10000	    0.90000;
	3033	 1	 0.0	 0.0	 0.0	 0.0	 3	    1.00000	    0.00000	 115.0	 27	    1.10000	    0.90000;
	3034	 2	 0.0	 0.0	 0.0	 0.0	 3	    1.00000	    0.00000	 22.0	 27	    1.10000	    0.90000;
	3035	 1	 3.47	 0.98	 0.0	 0.0	 3	    1.00000	    0.00000	 115.0	 28	    1.10000	    0.90000;
	3036	 1	 5.8	 1.64	 0.0	 0.0	 3	    1.00000	    0.00000	 115.0	 28	    1.10000	    0.90000;
	3037	 1	 0.0	 0.0	 0.0	 0.0	 3	    1.00000	    0.00000	 230.0	 27	    1.10000	    0.90000;
	3038	 1	 0.0	 0.0	 0.0	 0.0	 3	    1.00000	    0.00000	 115.0	 27	    1.10000	    0.90000;
	3039	 2	 0.0	 0.0	 0.0	 0.0	 3	    1.00000	    0.00000	 13.8	 27	    1.10000	    0.90000;
	3040	 1	 14.61	 4.14	 0.0	 0.0	 3	    1.00000	    0.00000	 115.0	 27	    1.10000	    0.90000;
	3041	 1	 0.0	 0.0	 0.0	 0.0	 3	    1.00000	    0.00000	 230.0	 27	    1.10000	    0.90000;
	3042	 1	 8.75	 2.48	 0.0	 0.0	 3	    1.00000	    0.00000	 115.0	 27	    1.10000	    0.90000;
	3043	 2	 0.0	 0.0	 0.0	 0.0	 3	    1.00000	    0.00000	 13.8	 27	    1.10000	    0.90000;
	3044	 2	 0.0	 0.0	 0.0	 0.0	 3	    1.00000	    0.00000	 13.8	 27	    1.10000	    0.90000;
	3045	 2	 0.0	 0.0	 0.0	 0.0	 3	    1.00000	    0.00000	 13.8	 27	    1.10000	    0.90000;
	3046	 1	 0.0	 0.0	 0.0	 200.0	 3	    1.00000	    0.00000	 230.0	 27	    1.10000	    0.90000;
	3047	 1	 0.0	 0.0	 0.0	 99.71	 3	    1.00000	    0.00000	 115.0	 27	    1.10000	    0.90000;
	3048	 2	 0.0	 0.0	 0.0	 0.0	 3	    1.00000	    0.00000	 500.0	 27	    1.10000	    0.90000;
	3049	 1	 10.58	 3.0	 0.0	 0.0	 3	    1.00000	    0.00000	 115.0	 27	    1.10000	    0.90000;
	3050	 1	 0.0	 0.0	 0.0	 65.0	 3	    1.00000	    0.00000	 230.0	 28	    1.10000	    0.90000;
	3051	 1	 145.29	 41.17	 0.0	 20.0	 3	    1.00000	    0.00000	 115.0	 28	    1.10000	    0.90000;
	3052	 1	 8.08	 2.29	 0.0	 0.0	 3	    1.00000	    0.00000	 115.0	 28	    1.10000	    0.90000;
	3053	 1	 0.0	 0.0	 0.0	 0.0	 3	    1.00000	    0.00000	 230.0	 27	    1.10000	    0.90000;
	3054	 1	 0.0	 0.0	 0.0	 0.0	 3	    1.00000	    0.00000	 115.0	 27	    1.10000	    0.90000;
	3055	 2	 0.0	 0.0	 0.0	 0.0	 3	    1.00000	    0.00000	 13.8	 27	    1.10000	    0.90000;
	3056	 2	 0.0	 0.0	 0.0	 0.0	 3	    1.00000	    0.00000	 13.8	 27	    1.10000	    0.90000;
	3057	 2	 0.0	 0.0	 0.0	 0.0	 3	    1.00000	    0.00000	 13.8	 27	    1.10000	    0.90000;
	3058	 1	 0.0	 0.0	 0.0	 0.0	 3	    1.00000	    0.00000	 230.0	 27	    1.10000	    0.90000;
	3059	 1	 0.0	 0.0	 0.0	 0.0	 3	    1.00000	    0.00000	 115.0	 27	    1.10000	    0.90000;
	3060	 2	 0.0	 0.0	 0.0	 0.0	 3	    1.00000	    0.00000	 18.0	 27	    1.10000	    0.90000;
	3061	 2	 0.0	 0.0	 0.0	 0.0	 3	    1.00000	    0.00000	 18.0	 27	    1.10000	    0.90000;
	3062	 2	 0.0	 0.0	 0.0	 0.0	 3	    1.00000	    0.00000	 18.0	 27	    1.10000	    0.90000;
	3063	 2	 0.0	 0.0	 0.0	 0.0	 3	    1.00000	    0.00000	 18.0	 27	    1.10000	    0.90000;
	3064	 1	 0.0	 0.0	 0.0	 0.0	 3	    1.00000	    0.00000	 115.0	 27	    1.10000	    0.90000;
	3065	 2	 0.0	 0.0	 0.0	 0.0	 3	    1.00000	    0.00000	 18.0	 27	    1.10000	    0.90000;
	3066	 1	 22.03	 6.24	 0.0	 0.0	 3	    1.00000	    0.00000	 115.0	 28	    1.10000	    0.90000;
	3067	 1	 0.0	 0.0	 0.0	 0.0	 3	    1.00000	    0.00000	 115.0	 27	    1.10000	    0.90000;
	3068	 2	 0.0	 0.0	 0.0	 0.0	 3	    1.00000	    0.00000	 20.0	 27	    1.10000	    0.90000;
	3069	 1	 3.81	 1.08	 0.0	 0.0	 3	    1.00000	    0.00000	 115.0	 27	    1.10000	    0.90000;
	3070	 1	 0.0	 0.0	 0.0	 0.0	 3	    1.00000	    0.00000	 115.0	 27	    1.10000	    0.90000;
	3071	 2	 0.0	 0.0	 0.0	 0.0	 3	    1.00000	    0.00000	 24.0	 27	    1.10000	    0.90000;
	3072	 1	 5.98	 1.7	 0.0	 0.0	 3	    1.00000	    0.00000	 115.0	 27	    1.10000	    0.90000;
	3073	 1	 0.0	 0.0	 0.0	 0.0	 3	    1.00000	    0.00000	 115.0	 28	    1.10000	    0.90000;
	3074	 2	 0.0	 0.0	 0.0	 0.0	 3	    1.00000	    0.00000	 13.8	 28	    1.10000	    0.90000;