%%%%%%%%%%%%%%%%%%%%%%%%%%%%%%%%%%%%%%%%%%%%%%%%%%%%%%%%%%%%%%%%%%%%%%%%%%%
%%%%                                                                  %%%%%
%%%%    IEEE PES Power Grid Library - Optimal Power Flow - v21.07     %%%%%
%%%%          (https://github.com/power-grid-lib/pglib-opf)           %%%%%
%%%%               Benchmark Group - Typical Operations               %%%%%
%%%%                         29 - July - 2021                         %%%%%
%%%%                                                                  %%%%%
%%%%%%%%%%%%%%%%%%%%%%%%%%%%%%%%%%%%%%%%%%%%%%%%%%%%%%%%%%%%%%%%%%%%%%%%%%%
%
%   This case was prepared as part of PSERC M-21, "Technical and Economic 
%   Implications of Greenhouse Gas Regulation in a Transmission Constrained 
%   Restructured Electricity Market", which is available at https://pserc.wisc.edu
%   This dataset only includes the network model, the original report has a
%   variety of additional data, which are discussed in the following technical
%   report, 
%
%   Price, J. & Goodin, J.
%   "Reduced Network Modeling of WECC as a Market Design Prototype"
%   Power and Energy Society General Meeting
%   Detroit, MI, July, 2011
%
%   Copyright (c) 2011, Power Systems Engineering Research Center (PSERC)
%   Licensed under the Creative Commons Attribution 4.0 International license,
%   http://creativecommons.org/licenses/by/4.0/
%
function mpc = pglib_opf_case240_pserc
mpc.version = '2';
mpc.baseMVA = 100.0;

%% bus data
%	bus_i	type	Pd	Qd	Gs	Bs	area	Vm	Va	baseKV	zone	Vmax	Vmin
mpc.bus = [
	1001	 1	 0.0	 0.0	 0.0	 0.0	 10	    1.00000	    0.00000	 500.0	 1	    1.10000	    0.90000;
	1002	 1	 226.8419	 -37.472	 0.0	 0.0	 10	    1.00000	    0.00000	 345.0	 1	    1.10000	    0.90000;
	1003	 1	 2153.3224	 366.856	 0.0	 0.0	 10	    1.00000	    0.00000	 230.0	 1	    1.10000	    0.90000;
	1004	 1	 1037.9499	 5.521	 0.0	 0.0	 10	    1.00000	    0.00000	 345.0	 1	    1.10000	    0.90000;
	1032	 2	 0.0	 0.0	 0.0	 0.0	 10	    1.00000	    0.00000	 20.0	 1	    1.10000	    0.90000;
	1034	 2	 0.0	 0.0	 0.0	 0.0	 10	    1.00000	    0.00000	 20.0	 1	    1.10000	    0.90000;
	1101	 1	 4527.3661	 -137.044	 0.0	 0.0	 10	    1.00000	    0.00000	 500.0	 1	    1.10000	    0.90000;
	1102	 1	 176.4436	 23.004	 0.0	 0.0	 10	    1.00000	    0.00000	 345.0	 1	    1.10000	    0.90000;
	1131	 2	 0.0	 0.0	 0.0	 0.0	 10	    1.00000	    0.00000	 20.0	 1	    1.10000	    0.90000;
	1201	 1	 166.9882	 -2.012	 0.0	 0.0	 10	    1.00000	    0.00000	 500.0	 1	    1.10000	    0.90000;
	1202	 1	 875.61	 287.131	 0.0	 0.0	 10	    1.00000	    0.00000	 500.0	 1	    1.10000	    0.90000;
	1232	 2	 0.0	 0.0	 0.0	 0.0	 10	    1.00000	    0.00000	 20.0	 1	    1.10000	    0.90000;
	1301	 1	 2704.7793	 352.826	 0.0	 0.0	 10	    1.00000	    0.00000	 500.0	 1	    1.10000	    0.90000;
	1302	 1	 17.5556	 2.304	 0.0	 0.0	 10	    1.00000	    0.00000	 500.0	 1	    1.10000	    0.90000;
	1303	 1	 6235.136	 813.349	 0.0	 0.0	 10	    1.00000	    0.00000	 345.0	 1	    1.10000	    0.90000;
	1331	 2	 0.0	 0.0	 0.0	 0.0	 10	    1.00000	    0.00000	 20.0	 1	    1.10000	    0.90000;
	1333	 2	 0.0	 0.0	 0.0	 0.0	 10	    1.00000	    0.00000	 20.0	 1	    1.10000	    0.90000;
	1401	 1	 6535.5365	 1524.594	 0.0	 0.0	 10	    1.00000	    0.00000	 500.0	 1	    1.10000	    0.90000;
	1402	 1	 5366.6305	 -600.162	 0.0	 0.0	 10	    1.00000	    0.00000	 500.0	 1	    1.10000	    0.90000;
	1403	 1	 0.0	 0.0	 0.0	 0.0	 10	    1.00000	    0.00000	 230.0	 1	    1.10000	    0.90000;
	1431	 2	 0.0	 0.0	 0.0	 0.0	 10	    1.00000	    0.00000	 20.0	 1	    1.10000	    0.90000;
	2000	 1	 2207.188	 287.916	 0.0	 0.0	 20	    1.00000	    0.00000	 230.0	 1	    1.10000	    0.90000;
	2030	 2	 0.0	 0.0	 0.0	 0.0	 20	    1.00000	    0.00000	 20.0	 1	    1.10000	    0.90000;
	2100	 1	 281.1513	 54.83	 0.0	 0.0	 21	    1.00000	    0.00000	 230.0	 1	    1.10000	    0.90000;
	2130	 2	 0.0	 0.0	 0.0	 0.0	 21	    1.00000	    0.00000	 20.0	 1	    1.10000	    0.90000;
	2201	 1	 0.0	 0.0	 0.0	 0.0	 22	    1.00000	    0.00000	 500.0	 1	    1.10000	    0.90000;
	2202	 1	 1545.949	 268.565	 0.0	 0.0	 22	    1.00000	    0.00000	 230.0	 1	    1.10000	    0.90000;
	2203	 1	 1708.5525	 278.273	 0.0	 0.0	 22	    1.00000	    0.00000	 230.0	 1	    1.10000	    0.90000;
	2233	 2	 0.0	 0.0	 0.0	 0.0	 22	    1.00000	    0.00000	 20.0	 1	    1.10000	    0.90000;
	2301	 1	 0.0	 0.0	 0.0	 0.0	 22	    1.00000	    0.00000	 500.0	 1	    1.10000	    0.90000;
	2302	 1	 0.0	 0.0	 0.0	 0.0	 22	    1.00000	    0.00000	 230.0	 1	    1.10000	    0.90000;
	2332	 2	 0.0	 0.0	 0.0	 0.0	 22	    1.00000	    0.00000	 20.0	 1	    1.10000	    0.90000;
	2400	 1	 843.2926	 76.663	 0.0	 0.0	 24	    1.00000	    0.00000	 500.0	 1	    1.10000	    0.90000;
	2401	 1	 882.3636	 105.214	 0.0	 0.0	 24	    1.00000	    0.00000	 500.0	 1	    1.10000	    0.90000;
	2402	 1	 1080.0201	 81.979	 0.0	 0.0	 24	    1.00000	    0.00000	 500.0	 1	    1.10000	    0.90000;
	2403	 1	 1050.004	 38.543	 0.0	 0.0	 24	    1.00000	    0.00000	 500.0	 1	    1.10000	    0.90000;
	2404	 1	 0.0	 0.0	 0.0	 0.0	 24	    1.00000	    0.00000	 500.0	 1	    1.10000	    0.90000;
	2405	 1	 824.6826	 22.901	 0.0	 0.0	 24	    1.00000	    0.00000	 230.0	 1	    1.10000	    0.90000;
	2406	 1	 737.4036	 -40.751	 0.0	 0.0	 24	    1.00000	    0.00000	 230.0	 1	    1.10000	    0.90000;
	2407	 1	 1732.771	 -36.535	 0.0	 0.0	 24	    1.00000	    0.00000	 230.0	 1	    1.10000	    0.90000;
	2408	 1	 1743.2768	 -72.623	 0.0	 0.0	 24	    1.00000	    0.00000	 230.0	 1	    1.10000	    0.90000;
	2409	 1	 1601.7777	 -86.698	 0.0	 0.0	 24	    1.00000	    0.00000	 230.0	 1	    1.10000	    0.90000;
	2410	 1	 1576.7872	 58.184	 0.0	 0.0	 24	    1.00000	    0.00000	 230.0	 1	    1.10000	    0.90000;
	2411	 1	 1087.6239	 75.955	 0.0	 0.0	 24	    1.00000	    0.00000	 230.0	 1	    1.10000	    0.90000;
	2438	 2	 0.0	 0.0	 0.0	 0.0	 24	    1.00000	    0.00000	 20.0	 1	    1.10000	    0.90000;
	2501	 1	 0.0	 0.0	 0.0	 0.0	 25	    1.00000	    0.00000	 500.0	 1	    1.10000	    0.90000;
	2502	 1	 2369.1531	 -91.905	 0.0	 0.0	 25	    1.00000	    0.00000	 230.0	 1	    1.10000	    0.90000;
	2503	 1	 1845.9256	 201.991	 0.0	 0.0	 25	    1.00000	    0.00000	 230.0	 1	    1.10000	    0.90000;
	2533	 2	 0.0	 0.0	 0.0	 0.0	 25	    1.00000	    0.00000	 20.0	 1	    1.10000	    0.90000;
	2600	 1	 -1863.9044	 0.0	 0.0	 0.0	 90	    1.00000	    0.00000	 500.0	 1	    1.10000	    0.90000;
	2601	 1	 0.0	 0.0	 0.0	 0.0	 26	    1.00000	    0.00000	 500.0	 1	    1.10000	    0.90000;
	2602	 1	 99.2784	 12.955	 0.0	 0.0	 26	    1.00000	    0.00000	 500.0	 1	    1.10000	    0.90000;
	2603	 1	 0.0	 0.0	 0.0	 0.0	 26	    1.00000	    0.00000	 500.0	 1	    1.10000	    0.90000;
	2604	 1	 2050.7816	 0.0	 0.0	 0.0	 90	    1.00000	    0.00000	 345.0	 1	    1.10000	    0.90000;
	2605	 1	 0.0	 0.0	 0.0	 0.0	 26	    1.00000	    0.00000	 287.0	 1	    1.10000	    0.90000;
	2606	 1	 0.0	 0.0	 0.0	 0.0	 26	    1.00000	    0.00000	 287.0	 1	    1.10000	    0.90000;
	2607	 1	 0.0	 0.0	 0.0	 0.0	 26	    1.00000	    0.00000	 287.0	 1	    1.10000	    0.90000;
	2608	 1	 99.2784	 12.955	 0.0	 0.0	 26	    1.00000	    0.00000	 230.0	 1	    1.10000	    0.90000;
	2609	 1	 134.0261	 26.805	 0.0	 0.0	 26	    1.00000	    0.00000	 230.0	 1	    1.10000	    0.90000;
	2610	 1	 99.2784	 12.955	 0.0	 0.0	 26	    1.00000	    0.00000	 230.0	 1	    1.10000	    0.90000;
	2611	 1	 99.2784	 12.955	 0.0	 0.0	 26	    1.00000	    0.00000	 230.0	 1	    1.10000	    0.90000;
	2612	 1	 120.1277	 24.819	 0.0	 0.0	 26	    1.00000	    0.00000	 230.0	 1	    1.10000	    0.90000;
	2613	 1	 317.693	 64.532	 0.0	 0.0	 26	    1.00000	    0.00000	 230.0	 1	    1.10000	    0.90000;
	2614	 1	 137.0047	 27.798	 0.0	 0.0	 26	    1.00000	    0.00000	 230.0	 1	    1.10000	    0.90000;
	2615	 1	 801.9756	 131.148	 0.0	 0.0	 26	    1.00000	    0.00000	 230.0	 1	    1.10000	    0.90000;
	2616	 1	 116.1565	 23.827	 0.0	 0.0	 26	    1.00000	    0.00000	 230.0	 1	    1.10000	    0.90000;
	2617	 1	 120.1277	 24.819	 0.0	 0.0	 26	    1.00000	    0.00000	 230.0	 1	    1.10000	    0.90000;
	2618	 1	 881.2994	 -6.155	 0.0	 0.0	 26	    1.00000	    0.00000	 230.0	 1	    1.10000	    0.90000;
	2619	 1	 -2773.8339	 0.0	 0.0	 0.0	 90	    1.00000	    0.00000	 230.0	 1	    1.10000	    0.90000;
	2620	 1	 203.7206	 17.473	 0.0	 0.0	 26	    1.00000	    0.00000	 230.0	 1	    1.10000	    0.90000;
	2621	 1	 235.4897	 -62.745	 0.0	 0.0	 26	    1.00000	    0.00000	 138.0	 1	    1.10000	    0.90000;
	2630	 2	 0.0	 0.0	 0.0	 0.0	 26	    1.00000	    0.00000	 20.0	 1	    1.10000	    0.90000;
	2631	 2	 0.0	 0.0	 0.0	 0.0	 26	    1.00000	    0.00000	 20.0	 1	    1.10000	    0.90000;
	2634	 2	 0.0	 0.0	 0.0	 0.0	 90	    1.00000	    0.00000	 20.0	 1	    1.10000	    0.90000;
	2637	 2	 0.0	 0.0	 0.0	 0.0	 26	    1.00000	    0.00000	 20.0	 1	    1.10000	    0.90000;
	2638	 2	 0.0	 0.0	 0.0	 0.0	 26	    1.00000	    0.00000	 20.0	 1	    1.10000	    0.90000;
	2901	 1	 0.0	 0.0	 0.0	 0.0	 24	    1.00000	    0.00000	 500.0	 1	    1.10000	    0.90000;
	2902	 1	 0.0	 0.0	 0.0	 0.0	 24	    1.00000	    0.00000	 500.0	 1	    1.10000	    0.90000;
	3101	 1	 341.3057	 52.828	 0.0	 0.0	 31	    1.00000	    0.00000	 230.0	 1	    1.10000	    0.90000;
	3102	 1	 159.4648	 24.929	 0.0	 0.0	 31	    1.00000	    0.00000	 230.0	 1	    1.10000	    0.90000;
	3103	 1	 419.6109	 59.777	 0.0	 0.0	 32	    1.00000	    0.00000	 230.0	 1	    1.10000	    0.90000;
	3104	 1	 309.9718	 40.133	 0.0	 0.0	 31	    1.00000	    0.00000	 115.0	 1	    1.10000	    0.90000;
	3105	 1	 239.3018	 49.091	 0.0	 0.0	 31	    1.00000	    0.00000	 115.0	 1	    1.10000	    0.90000;
	3133	 2	 0.0	 0.0	 0.0	 0.0	 32	    1.00000	    0.00000	 20.0	 1	    1.10000	    0.90000;
	3135	 2	 0.0	 0.0	 0.0	 0.0	 31	    1.00000	    0.00000	 20.0	 1	    1.10000	    0.90000;
	3201	 1	 462.4769	 97.849	 0.0	 0.0	 32	    1.00000	    0.00000	 230.0	 1	    1.10000	    0.90000;
	3202	 1	 586.1795	 83.473	 0.0	 0.0	 32	    1.00000	    0.00000	 230.0	 1	    1.10000	    0.90000;
	3203	 1	 657.1046	 158.476	 0.0	 0.0	 32	    1.00000	    0.00000	 230.0	 1	    1.10000	    0.90000;
	3204	 1	 668.7879	 95.313	 0.0	 0.0	 32	    1.00000	    0.00000	 230.0	 1	    1.10000	    0.90000;
	3205	 1	 546.0609	 77.782	 0.0	 0.0	 32	    1.00000	    0.00000	 230.0	 1	    1.10000	    0.90000;
	3234	 2	 0.0	 0.0	 0.0	 0.0	 32	    1.00000	    0.00000	 20.0	 1	    1.10000	    0.90000;
	3301	 1	 0.0	 0.0	 0.0	 0.0	 32	    1.00000	    0.00000	 500.0	 1	    1.10000	    0.90000;
	3302	 1	 345.3259	 85.791	 0.0	 0.0	 32	    1.00000	    0.00000	 230.0	 1	    1.10000	    0.90000;
	3303	 1	 625.4106	 150.715	 0.0	 0.0	 32	    1.00000	    0.00000	 230.0	 1	    1.10000	    0.90000;
	3304	 1	 533.4822	 122.616	 0.0	 0.0	 32	    1.00000	    0.00000	 230.0	 1	    1.10000	    0.90000;
	3305	 1	 430.3196	 61.225	 0.0	 0.0	 32	    1.00000	    0.00000	 230.0	 1	    1.10000	    0.90000;
	3333	 2	 0.0	 0.0	 0.0	 0.0	 32	    1.00000	    0.00000	 20.0	 1	    1.10000	    0.90000;
	3401	 1	 557.7071	 135.909	 0.0	 0.0	 34	    1.00000	    0.00000	 230.0	 1	    1.10000	    0.90000;
	3402	 1	 0.0	 0.0	 0.0	 0.0	 34	    1.00000	    0.00000	 230.0	 1	    1.10000	    0.90000;
	3403	 1	 515.9687	 73.583	 0.0	 0.0	 34	    1.00000	    0.00000	 230.0	 1	    1.10000	    0.90000;
	3404	 1	 438.461	 62.075	 0.0	 0.0	 34	    1.00000	    0.00000	 230.0	 1	    1.10000	    0.90000;
	3405	 1	 448.8976	 63.723	 0.0	 0.0	 34	    1.00000	    0.00000	 230.0	 1	    1.10000	    0.90000;
	3432	 2	 0.0	 0.0	 0.0	 0.0	 34	    1.00000	    0.00000	 20.0	 1	    1.10000	    0.90000;
	3433	 2	 0.0	 0.0	 0.0	 0.0	 34	    1.00000	    0.00000	 20.0	 1	    1.10000	    0.90000;
	3501	 1	 625.0164	 89.015	 0.0	 0.0	 35	    1.00000	    0.00000	 230.0	 1	    1.10000	    0.90000;
	3531	 2	 0.0	 0.0	 0.0	 0.0	 35	    1.00000	    0.00000	 20.0	 1	    1.10000	    0.90000;
	3601	 1	 104.8564	 14.844	 0.0	 0.0	 36	    1.00000	    0.00000	 115.0	 1	    1.10000	    0.90000;
	3631	 2	 0.0	 0.0	 0.0	 0.0	 36	    1.00000	    0.00000	 20.0	 1	    1.10000	    0.90000;
	3701	 1	 317.0506	 15.847	 0.0	 0.0	 37	    1.00000	    0.00000	 115.0	 1	    1.10000	    0.90000;
	3731	 2	 0.0	 0.0	 0.0	 0.0	 37	    1.00000	    0.00000	 20.0	 1	    1.10000	    0.90000;
	3801	 1	 191.2229	 47.411	 0.0	 0.0	 38	    1.00000	    0.00000	 500.0	 1	    1.10000	    0.90000;
	3802	 1	 0.0	 0.0	 0.0	 0.0	 38	    1.00000	    0.00000	 500.0	 1	    1.10000	    0.90000;
	3803	 1	 0.0	 0.0	 0.0	 0.0	 38	    1.00000	    0.00000	 500.0	 1	    1.10000	    0.90000;
	3804	 1	 223.6404	 55.318	 0.0	 0.0	 38	    1.00000	    0.00000	 230.0	 1	    1.10000	    0.90000;
	3805	 1	 499.3888	 163.106	 0.0	 0.0	 38	    1.00000	    0.00000	 230.0	 1	    1.10000	    0.90000;
	3806	 1	 289.5858	 41.366	 0.0	 0.0	 38	    1.00000	    0.00000	 230.0	 1	    1.10000	    0.90000;
	3831	 2	 0.0	 0.0	 0.0	 0.0	 38	    1.00000	    0.00000	 20.0	 1	    1.10000	    0.90000;
	3835	 2	 0.0	 0.0	 0.0	 0.0	 38	    1.00000	    0.00000	 20.0	 1	    1.10000	    0.90000;
	3836	 2	 0.0	 0.0	 0.0	 0.0	 38	    1.00000	    0.00000	 20.0	 1	    1.10000	    0.90000;
	3891	 1	 0.0	 0.0	 0.0	 0.0	 38	    1.00000	    0.00000	 500.0	 1	    1.10000	    0.90000;
	3892	 1	 0.0	 0.0	 0.0	 0.0	 38	    1.00000	    0.00000	 500.0	 1	    1.10000	    0.90000;
	3893	 1	 0.0	 0.0	 0.0	 0.0	 38	    1.00000	    0.00000	 500.0	 1	    1.10000	    0.90000;
	3894	 1	 0.0	 0.0	 0.0	 0.0	 38	    1.00000	    0.00000	 500.0	 1	    1.10000	    0.90000;
	3895	 1	 0.0	 0.0	 0.0	 0.0	 38	    1.00000	    0.00000	 500.0	 1	    1.10000	    0.90000;
	3896	 1	 0.0	 0.0	 0.0	 0.0	 38	    1.00000	    0.00000	 500.0	 1	    1.10000	    0.90000;
	3897	 1	 0.0	 0.0	 0.0	 0.0	 38	    1.00000	    0.00000	 500.0	 1	    1.10000	    0.90000;
	3901	 1	 0.0	 0.0	 0.0	 0.0	 39	    1.00000	    0.00000	 500.0	 1	    1.10000	    0.90000;
	3902	 1	 152.9913	 38.248	 0.0	 0.0	 39	    1.00000	    0.00000	 500.0	 1	    1.10000	    0.90000;
	3903	 1	 213.2478	 30.269	 0.0	 0.0	 39	    1.00000	    0.00000	 500.0	 1	    1.10000	    0.90000;
	3904	 1	 0.0	 0.0	 0.0	 0.0	 39	    1.00000	    0.00000	 500.0	 1	    1.10000	    0.90000;
	3905	 1	 0.0	 0.0	 0.0	 0.0	 39	    1.00000	    0.00000	 500.0	 1	    1.10000	    0.90000;
	3906	 1	 0.0	 0.0	 0.0	 0.0	 39	    1.00000	    0.00000	 500.0	 1	    1.10000	    0.90000;
	3907	 1	 461.3573	 63.071	 0.0	 0.0	 39	    1.00000	    0.00000	 230.0	 1	    1.10000	    0.90000;
	3908	 1	 200.2788	 24.716	 0.0	 0.0	 39	    1.00000	    0.00000	 230.0	 1	    1.10000	    0.90000;
	3909	 1	 170.957	 39.785	 0.0	 0.0	 39	    1.00000	    0.00000	 230.0	 1	    1.10000	    0.90000;
	3910	 1	 241.8392	 34.44	 0.0	 0.0	 39	    1.00000	    0.00000	 230.0	 1	    1.10000	    0.90000;
	3911	 1	 233.1345	 47.114	 0.0	 0.0	 39	    1.00000	    0.00000	 230.0	 1	    1.10000	    0.90000;
	3912	 1	 174.5029	 -0.634	 0.0	 0.0	 39	    1.00000	    0.00000	 230.0	 1	    1.10000	    0.90000;
	3913	 1	 329.5484	 43.435	 0.0	 0.0	 39	    1.00000	    0.00000	 230.0	 1	    1.10000	    0.90000;
	3914	 1	 227.7536	 52.549	 0.0	 0.0	 39	    1.00000	    0.00000	 230.0	 1	    1.10000	    0.90000;
	3915	 1	 254.4589	 53.402	 0.0	 0.0	 39	    1.00000	    0.00000	 230.0	 1	    1.10000	    0.90000;
	3916	 1	 155.0024	 0.0	 0.0	 0.0	 39	    1.00000	    0.00000	 230.0	 1	    1.10000	    0.90000;
	3917	 1	 238.1882	 43.995	 0.0	 0.0	 39	    1.00000	    0.00000	 230.0	 1	    1.10000	    0.90000;
	3918	 1	 319.2809	 75.464	 0.0	 0.0	 39	    1.00000	    0.00000	 230.0	 1	    1.10000	    0.90000;
	3919	 1	 184.5093	 24.094	 0.0	 0.0	 39	    1.00000	    0.00000	 230.0	 1	    1.10000	    0.90000;
	3920	 1	 172.5018	 23.677	 0.0	 0.0	 39	    1.00000	    0.00000	 230.0	 1	    1.10000	    0.90000;
	3921	 1	 150.8902	 34.821	 0.0	 0.0	 39	    1.00000	    0.00000	 230.0	 1	    1.10000	    0.90000;
	3922	 1	 253.4454	 31.919	 0.0	 0.0	 39	    1.00000	    0.00000	 230.0	 1	    1.10000	    0.90000;
	3923	 1	 399.0618	 67.021	 0.0	 0.0	 39	    1.00000	    0.00000	 230.0	 1	    1.10000	    0.90000;
	3924	 1	 332.4879	 47.165	 0.0	 0.0	 39	    1.00000	    0.00000	 230.0	 1	    1.10000	    0.90000;
	3925	 1	 0.0	 0.0	 0.0	 0.0	 39	    1.00000	    0.00000	 115.0	 1	    1.10000	    0.90000;
	3926	 1	 267.3529	 16.668	 0.0	 0.0	 39	    1.00000	    0.00000	 115.0	 1	    1.10000	    0.90000;
	3931	 2	 0.0	 0.0	 0.0	 0.0	 39	    1.00000	    0.00000	 20.0	 1	    1.10000	    0.90000;
	3932	 2	 0.0	 0.0	 0.0	 0.0	 39	    1.00000	    0.00000	 20.0	 1	    1.10000	    0.90000;
	3933	 3	 0.0	 0.0	 0.0	 0.0	 39	    1.00000	    0.00000	 20.0	 1	    1.10000	    0.90000;
	4001	 1	 0.0	 0.0	 0.0	 0.0	 40	    1.00000	    0.00000	 500.0	 1	    1.10000	    0.90000;
	4002	 1	 168.6841	 21.998	 0.0	 0.0	 40	    1.00000	    0.00000	 500.0	 1	    1.10000	    0.90000;
	4003	 1	 0.0	 0.0	 0.0	 0.0	 40	    1.00000	    0.00000	 500.0	 1	    1.10000	    0.90000;
	4004	 1	 270.4505	 35.297	 0.0	 0.0	 40	    1.00000	    0.00000	 500.0	 1	    1.10000	    0.90000;
	4005	 1	 480.1144	 157.418	 0.0	 0.0	 40	    1.00000	    0.00000	 500.0	 1	    1.10000	    0.90000;
	4006	 1	 0.0	 0.0	 0.0	 0.0	 40	    1.00000	    0.00000	 500.0	 1	    1.10000	    0.90000;
	4007	 1	 0.0	 0.0	 0.0	 0.0	 40	    1.00000	    0.00000	 500.0	 1	    1.10000	    0.90000;
	4008	 1	 285.1446	 37.198	 0.0	 0.0	 40	    1.00000	    0.00000	 345.0	 1	    1.10000	    0.90000;
	4009	 1	 2208.7429	 431.395	 0.0	 0.0	 40	    1.00000	    0.00000	 230.0	 1	    1.10000	    0.90000;
	4010	 1	 3133.6101	 0.0	 0.0	 0.0	 90	    1.00000	    0.00000	 230.0	 1	    1.10000	    0.90000;
	4031	 2	 0.0	 0.0	 0.0	 0.0	 40	    1.00000	    0.00000	 20.0	 1	    1.10000	    0.90000;
	4035	 2	 0.0	 0.0	 0.0	 0.0	 40	    1.00000	    0.00000	 20.0	 1	    1.10000	    0.90000;
	4039	 2	 0.0	 0.0	 0.0	 0.0	 40	    1.00000	    0.00000	 20.0	 1	    1.10000	    0.90000;
	4090	 1	 0.0	 0.0	 0.0	 0.0	 40	    1.00000	    0.00000	 500.0	 1	    1.10000	    0.90000;
	4091	 1	 0.0	 0.0	 0.0	 0.0	 40	    1.00000	    0.00000	 500.0	 1	    1.10000	    0.90000;
	4092	 1	 0.0	 0.0	 0.0	 0.0	 40	    1.00000	    0.00000	 500.0	 1	    1.10000	    0.90000;
	4093	 1	 0.0	 0.0	 0.0	 0.0	 40	    1.00000	    0.00000	 500.0	 1	    1.10000	    0.90000;
	4094	 1	 0.0	 0.0	 0.0	 0.0	 40	    1.00000	    0.00000	 500.0	 1	    1.10000	    0.90000;
	4095	 1	 0.0	 0.0	 0.0	 0.0	 40	    1.00000	    0.00000	 500.0	 1	    1.10000	    0.90000;
	4096	 1	 0.0	 0.0	 0.0	 0.0	 40	    1.00000	    0.00000	 500.0	 1	    1.10000	    0.90000;
	4097	 1	 0.0	 0.0	 0.0	 0.0	 40	    1.00000	    0.00000	 500.0	 1	    1.10000	    0.90000;
	4101	 1	 995.0275	 129.784	 0.0	 0.0	 40	    1.00000	    0.00000	 500.0	 1	    1.10000	    0.90000;
	4102	 1	 480.649	 68.664	 0.0	 0.0	 40	    1.00000	    0.00000	 500.0	 1	    1.10000	    0.90000;
	4103	 1	 11.6269	 1.509	 0.0	 0.0	 40	    1.00000	    0.00000	 500.0	 1	    1.10000	    0.90000;
	4104	 1	 2527.7724	 329.74	 0.0	 0.0	 40	    1.00000	    0.00000	 230.0	 1	    1.10000	    0.90000;
	4131	 2	 0.0	 0.0	 0.0	 0.0	 40	    1.00000	    0.00000	 20.0	 1	    1.10000	    0.90000;
	4132	 2	 0.0	 0.0	 0.0	 0.0	 40	    1.00000	    0.00000	 20.0	 1	    1.10000	    0.90000;
	4201	 1	 5762.6589	 461.013	 0.0	 0.0	 40	    1.00000	    0.00000	 500.0	 1	    1.10000	    0.90000;
	4202	 1	 4558.2389	 594.626	 0.0	 0.0	 40	    1.00000	    0.00000	 500.0	 1	    1.10000	    0.90000;
	4203	 1	 4379.6262	 571.331	 0.0	 0.0	 40	    1.00000	    0.00000	 500.0	 1	    1.10000	    0.90000;
	4204	 1	 1014.5202	 132.34	 0.0	 0.0	 40	    1.00000	    0.00000	 500.0	 1	    1.10000	    0.90000;
	4231	 2	 0.0	 0.0	 0.0	 0.0	 40	    1.00000	    0.00000	 20.0	 1	    1.10000	    0.90000;
	4232	 2	 0.0	 0.0	 0.0	 0.0	 40	    1.00000	    0.00000	 20.0	 1	    1.10000	    0.90000;
	5001	 1	 7574.0522	 1721.375	 0.0	 0.0	 50	    1.00000	    0.00000	 500.0	 1	    1.10000	    0.90000;
	5002	 1	 9003.9839	 1174.359	 0.0	 0.0	 50	    1.00000	    0.00000	 500.0	 1	    1.10000	    0.90000;
	5003	 1	 615.2178	 80.253	 0.0	 0.0	 50	    1.00000	    0.00000	 230.0	 1	    1.10000	    0.90000;
	5004	 1	 0.0	 0.0	 0.0	 0.0	 50	    1.00000	    0.00000	 230.0	 1	    1.10000	    0.90000;
	5031	 2	 0.0	 0.0	 0.0	 0.0	 50	    1.00000	    0.00000	 20.0	 1	    1.10000	    0.90000;
	5032	 2	 0.0	 0.0	 0.0	 0.0	 50	    1.00000	    0.00000	 20.0	 1	    1.10000	    0.90000;
	6101	 1	 0.0	 0.0	 0.0	 0.0	 61	    1.00000	    0.00000	 500.0	 1	    1.10000	    0.90000;
	6102	 1	 1053.1441	 -345.277	 0.0	 0.0	 61	    1.00000	    0.00000	 345.0	 1	    1.10000	    0.90000;
	6103	 1	 391.888	 51.111	 0.0	 0.0	 61	    1.00000	    0.00000	 345.0	 1	    1.10000	    0.90000;
	6104	 1	 1694.958	 221.085	 0.0	 0.0	 61	    1.00000	    0.00000	 230.0	 1	    1.10000	    0.90000;
	6132	 2	 0.0	 0.0	 0.0	 0.0	 61	    1.00000	    0.00000	 20.0	 1	    1.10000	    0.90000;
	6201	 1	 205.82	 26.857	 0.0	 0.0	 60	    1.00000	    0.00000	 500.0	 1	    1.10000	    0.90000;
	6202	 1	 88.7215	 13.528	 0.0	 0.0	 60	    1.00000	    0.00000	 500.0	 1	    1.10000	    0.90000;
	6203	 1	 1112.3464	 145.093	 0.0	 0.0	 60	    1.00000	    0.00000	 230.0	 1	    1.10000	    0.90000;
	6204	 1	 1199.2957	 156.461	 0.0	 0.0	 60	    1.00000	    0.00000	 230.0	 1	    1.10000	    0.90000;
	6205	 1	 489.2825	 86.344	 0.0	 0.0	 60	    1.00000	    0.00000	 230.0	 1	    1.10000	    0.90000;
	6231	 2	 0.0	 0.0	 0.0	 0.0	 60	    1.00000	    0.00000	 20.0	 1	    1.10000	    0.90000;
	6235	 2	 0.0	 0.0	 0.0	 0.0	 60	    1.00000	    0.00000	 20.0	 1	    1.10000	    0.90000;
	6301	 1	 516.3779	 67.362	 0.0	 0.0	 60	    1.00000	    0.00000	 345.0	 1	    1.10000	    0.90000;
	6302	 1	 591.8185	 77.219	 0.0	 0.0	 60	    1.00000	    0.00000	 345.0	 1	    1.10000	    0.90000;
	6303	 1	 746.6019	 97.404	 0.0	 0.0	 60	    1.00000	    0.00000	 230.0	 1	    1.10000	    0.90000;
	6304	 1	 0.0	 0.0	 0.0	 0.0	 60	    1.00000	    0.00000	 230.0	 1	    1.10000	    0.90000;
	6305	 1	 60.2324	 19.752	 0.0	 0.0	 60	    1.00000	    0.00000	 230.0	 1	    1.10000	    0.90000;
	6333	 2	 0.0	 0.0	 0.0	 0.0	 60	    1.00000	    0.00000	 20.0	 1	    1.10000	    0.90000;
	6335	 2	 0.0	 0.0	 0.0	 0.0	 60	    1.00000	    0.00000	 20.0	 1	    1.10000	    0.90000;
	6401	 1	 1672.3727	 218.148	 0.0	 0.0	 64	    1.00000	    0.00000	 345.0	 1	    1.10000	    0.90000;
	6402	 1	 272.5124	 35.566	 0.0	 0.0	 64	    1.00000	    0.00000	 115.0	 1	    1.10000	    0.90000;
	6403	 1	 2.1985	 0.272	 0.0	 0.0	 64	    1.00000	    0.00000	 345.0	 1	    1.10000	    0.90000;
	6404	 1	 28.98	 3.775	 0.0	 0.0	 64	    1.00000	    0.00000	 345.0	 1	    1.10000	    0.90000;
	6433	 2	 0.0	 0.0	 0.0	 0.0	 64	    1.00000	    0.00000	 20.0	 1	    1.10000	    0.90000;
	6501	 1	 195.5463	 64.128	 0.0	 0.0	 60	    1.00000	    0.00000	 345.0	 1	    1.10000	    0.90000;
	6502	 1	 1555.5773	 277.672	 0.0	 0.0	 60	    1.00000	    0.00000	 345.0	 1	    1.10000	    0.90000;
	6503	 1	 441.1533	 144.603	 0.0	 0.0	 60	    1.00000	    0.00000	 345.0	 1	    1.10000	    0.90000;
	6504	 1	 296.9666	 38.73	 0.0	 0.0	 60	    1.00000	    0.00000	 345.0	 1	    1.10000	    0.90000;
	6505	 1	 6.7947	 2.231	 0.0	 0.0	 60	    1.00000	    0.00000	 345.0	 1	    1.10000	    0.90000;
	6506	 1	 0.0	 0.0	 0.0	 0.0	 60	    1.00000	    0.00000	 345.0	 1	    1.10000	    0.90000;
	6507	 1	 540.775	 -61.354	 0.0	 0.0	 60	    1.00000	    0.00000	 345.0	 1	    1.10000	    0.90000;
	6508	 1	 131.8343	 43.208	 0.0	 0.0	 60	    1.00000	    0.00000	 345.0	 1	    1.10000	    0.90000;
	6509	 1	 8.5932	 2.817	 0.0	 0.0	 60	    1.00000	    0.00000	 345.0	 1	    1.10000	    0.90000;
	6510	 1	 1946.0167	 -103.877	 0.0	 0.0	 60	    1.00000	    0.00000	 230.0	 1	    1.10000	    0.90000;
	6533	 2	 0.0	 0.0	 0.0	 0.0	 60	    1.00000	    0.00000	 20.0	 1	    1.10000	    0.90000;
	7001	 1	 7453.9144	 972.35	 0.0	 0.0	 60	    1.00000	    0.00000	 345.0	 1	    1.10000	    0.90000;
	7002	 1	 2554.8345	 -138.069	 0.0	 0.0	 60	    1.00000	    0.00000	 345.0	 1	    1.10000	    0.90000;
	7031	 2	 0.0	 0.0	 0.0	 0.0	 60	    1.00000	    0.00000	 20.0	 1	    1.10000	    0.90000;
	7032	 2	 0.0	 0.0	 0.0	 0.0	 60	    1.00000	    0.00000	 20.0	 1	    1.10000	    0.90000;
	8001	 1	 0.0	 0.0	 0.0	 0.0	 80	    1.00000	    0.00000	 500.0	 1	    1.10000	    0.90000;
	8002	 1	 0.0	 0.0	 0.0	 0.0	 80	    1.00000	    0.00000	 500.0	 1	    1.10000	    0.90000;
	8003	 1	 652.6717	 85.141	 0.0	 0.0	 80	    1.00000	    0.00000	 230.0	 1	    1.10000	    0.90000;
	8004	 1	 3787.8915	 494.11	 0.0	 0.0	 80	    1.00000	    0.00000	 230.0	 1	    1.10000	    0.90000;
	8005	 1	 1321.2379	 172.37	 0.0	 0.0	 80	    1.00000	    0.00000	 230.0	 1	    1.10000	    0.90000;
	8033	 2	 0.0	 0.0	 0.0	 0.0	 80	    1.00000	    0.00000	 20.0	 1	    1.10000	    0.90000;
	8034	 2	 0.0	 0.0	 0.0	 0.0	 80	    1.00000	    0.00000	 20.0	 1	    1.10000	    0.90000;
];

%% generator data
%	bus	Pg	Qg	Qmax	Qmin	Vg	mBase	status	Pmax	Pmin
mpc.gen = [
	1032	 1030.0	 0.0	 1030.0	 -1030.0	 1.0	 100.0	 1	 2060.0	 0.0; % COW
	1032	 357.0	 0.0	 357.0	 -357.0	 1.0	 100.0	 1	 714.0	 0.0; % COW
	1034	 2293.5	 0.0	 2294.0	 -2294.0	 1.0	 100.0	 1	 4587.0	 0.0; % NG
	1034	 917.5	 0.0	 918.0	 -918.0	 1.0	 100.0	 1	 1835.0	 0.0; % NUC
	1034	 700.0	 0.0	 700.0	 -700.0	 1.0	 100.0	 1	 1400.0	 0.0; % NUC
	1131	 307.5	 0.0	 308.0	 -308.0	 1.0	 100.0	 1	 615.0	 0.0; % COW
	1131	 1915.4	 0.0	 1916.0	 -1916.0	 1.0	 100.0	 1	 3830.8	 0.0; % COW
	1131	 120.0	 0.0	 120.0	 -120.0	 1.0	 100.0	 1	 240.0	 0.0; % NG
	1232	 1207.5	 0.0	 1208.0	 -1208.0	 1.0	 100.0	 1	 2415.0	 0.0; % COW
	1232	 628.0	 0.0	 628.0	 -628.0	 1.0	 100.0	 1	 1256.0	 0.0; % COW
	1331	 841.0	 0.0	 841.0	 -841.0	 1.0	 100.0	 1	 1682.0	 0.0; % COW
	1331	 1219.0	 0.0	 1219.0	 -1219.0	 1.0	 100.0	 1	 2438.0	 0.0; % COW
	1333	 302.5	 0.0	 303.0	 -303.0	 1.0	 100.0	 1	 605.0	 0.0; % COW
	1333	 2745.5	 0.0	 2746.0	 -2746.0	 1.0	 100.0	 1	 5491.0	 0.0; % NUC
	1333	 37.5	 0.0	 38.0	 -38.0	 1.0	 100.0	 1	 75.0	 0.0; % PEL
	1431	 3559.35	 0.0	 3559.0	 -3559.0	 1.0	 100.0	 1	 7118.7	 0.0; % COW
	1431	 2056.5	 0.0	 2057.0	 -2057.0	 1.0	 100.0	 1	 4113.0	 0.0; % COW
	1431	 15.0	 0.0	 15.0	 -15.0	 1.0	 100.0	 1	 30.0	 0.0; % PEL
	2030	 1070.0	 0.0	 1070.0	 -1070.0	 1.0	 100.0	 1	 2140.0	 0.0; % NUC
	2030	 349.5	 0.0	 350.0	 -350.0	 1.0	 100.0	 1	 699.0	 0.0; % COW
	2130	 200.0	 0.0	 200.0	 -200.0	 1.0	 100.0	 1	 400.0	 0.0; % COW
	2130	 253.5	 0.0	 254.0	 -254.0	 1.0	 100.0	 1	 507.0	 0.0; % NG
	2130	 250.0	 0.0	 250.0	 -250.0	 1.0	 100.0	 1	 500.0	 0.0; % NG
	2130	 86.0	 0.0	 86.0	 -86.0	 1.0	 100.0	 1	 172.0	 0.0; % NG
	2233	 353.0	 93.0	 304.0	 -118.0	 1.0	 100.0	 1	 706.0	 0.0; % COW
	2233	 626.5	 215.0	 611.0	 -181.0	 1.0	 100.0	 1	 1253.0	 0.0; % COW
	2233	 250.0	 25.5	 206.0	 -155.0	 1.0	 100.0	 1	 500.0	 0.0; % NG
	2332	 559.0	 113.0	 590.0	 -364.0	 1.0	 100.0	 1	 1118.0	 0.0; % COW
	2438	 781.5	 137.0	 728.0	 -454.0	 1.0	 100.0	 1	 1563.0	 0.0; % COW
	2438	 1859.0	 367.0	 1902.0	 -1168.0	 1.0	 100.0	 1	 3718.0	 0.0; % PEL
	2438	 1401.5	 624.0	 2301.0	 -1053.0	 1.0	 100.0	 1	 2803.0	 0.0; % COW
	2438	 670.0	 68.0	 659.0	 -523.0	 1.0	 100.0	 1	 1340.0	 0.0; % COW
	2438	 473.0	 119.5	 436.0	 -197.0	 1.0	 100.0	 1	 946.0	 0.0; % COW
	2438	 636.5	 4.0	 561.0	 -553.0	 1.0	 100.0	 1	 1273.0	 0.0; % COW
	2438	 1983.5	 380.0	 1910.0	 -1150.0	 1.0	 100.0	 1	 3967.0	 0.0; % COW
	2438	 -503.0	 0.25	 0.5	 0.0	 1.0	 100.0	 1	 0.0	 -1006.0; % SYNC
	2533	 1116.0	 140.0	 1100.0	 -820.0	 1.0	 100.0	 1	 2232.0	 0.0; % COW
	2630	 1346.0	 0.0	 1346.0	 -1346.0	 1.0	 100.0	 1	 2692.0	 0.0; % COW
	2631	 159.0	 0.0	 159.0	 -159.0	 1.0	 100.0	 1	 318.0	 0.0; % COW
	2634	 950.0	 0.0	 950.0	 -950.0	 1.0	 100.0	 1	 1900.0	 0.0; % NG
	2637	 55.0	 0.0	 110.0	 -110.0	 1.0	 100.0	 1	 110.0	 0.0; % NG
	2638	 0.0	 0.0	 100.0	 -100.0	 1.0	 100.0	 1	 1272.0	 -1272.0; % COW
	3133	 21.0	 6.5	 42.0	 -29.0	 1.0	 100.0	 1	 42.0	 0.0; % NG
	3133	 0.05	 0.0	 500.0	 -500.0	 1.0	 100.0	 1	 0.1	 0.0; % PEL
	3135	 184.5	 19.0	 239.0	 -201.0	 1.0	 100.0	 1	 369.0	 0.0; % NG
	3135	 13.0	 7.5	 100.0	 -85.0	 1.0	 100.0	 1	 26.0	 0.0; % PEL
	3234	 60.5	 13.0	 101.0	 -75.0	 1.0	 100.0	 1	 121.0	 0.0; % NG
	3234	 1314.0	 5.0	 1244.0	 -1234.0	 1.0	 100.0	 1	 2628.0	 0.0; % COW
	3234	 353.5	 85.0	 382.0	 -212.0	 1.0	 100.0	 1	 707.0	 0.0; % COW
	3234	 345.0	 10.0	 75.0	 -55.0	 1.0	 100.0	 1	 690.0	 0.0; % NG
	3333	 345.0	 86.0	 398.0	 -226.0	 1.0	 100.0	 1	 690.0	 0.0; % COW
	3333	 106.5	 29.5	 202.0	 -143.0	 1.0	 100.0	 1	 213.0	 0.0; % NG
	3432	 147.0	 102.0	 510.0	 -306.0	 1.0	 100.0	 1	 1218.0	 -924.0; % COW
	3433	 314.0	 28.0	 231.0	 -175.0	 1.0	 100.0	 1	 628.0	 0.0; % COW
	3433	 1008.0	 188.5	 939.0	 -562.0	 1.0	 100.0	 1	 2016.0	 0.0; % COW
	3531	 434.0	 202.5	 1004.0	 -599.0	 1.0	 100.0	 1	 868.0	 0.0; % COW
	3531	 162.5	 36.0	 253.0	 -181.0	 1.0	 100.0	 1	 325.0	 0.0; % NG
	3531	 15.0	 1.5	 13.0	 -10.0	 1.0	 100.0	 1	 30.0	 0.0; % PEL
	3631	 26.5	 3.0	 20.0	 -14.0	 1.0	 100.0	 1	 53.0	 0.0; % NG
	3631	 71.5	 20.0	 74.0	 -34.0	 1.0	 100.0	 1	 143.0	 0.0; % NG
	3731	 127.5	 39.5	 200.0	 -121.0	 1.0	 100.0	 1	 255.0	 0.0; % NG
	3831	 1133.5	 97.5	 1175.0	 -980.0	 1.0	 100.0	 1	 2267.0	 0.0; % COW
	3835	 690.5	 91.5	 662.0	 -479.0	 1.0	 100.0	 1	 1381.0	 0.0; % COW
	3835	 -255.0	 0.25	 0.5	 0.0	 1.0	 100.0	 1	 0.0	 -510.0; % SYNC
	3836	 510.5	 62.0	 476.0	 -352.0	 1.0	 100.0	 1	 1021.0	 0.0; % COW
	3931	 157.0	 18.0	 151.0	 -115.0	 1.0	 100.0	 1	 314.0	 0.0; % NG
	3931	 1848.0	 169.0	 1284.0	 -946.0	 1.0	 100.0	 1	 3696.0	 0.0; % COW
	3932	 739.0	 325.0	 1150.0	 -500.0	 1.0	 100.0	 1	 1478.0	 0.0; % COW
	3933	 295.0	 140.5	 363.0	 -82.0	 1.0	 100.0	 1	 590.0	 0.0; % COW
	3933	 95.5	 11.0	 77.0	 -55.0	 1.0	 100.0	 1	 191.0	 0.0; % NG
	3933	 657.0	 96.5	 500.0	 -307.0	 1.0	 100.0	 1	 1314.0	 0.0; % NG
	3933	 1752.5	 107.5	 1256.0	 -1041.0	 1.0	 100.0	 1	 3505.0	 0.0; % COW
	3933	 146.5	 1.0	 13.0	 -11.0	 1.0	 100.0	 1	 293.0	 0.0; % NG
	3933	 -224.5	 0.25	 0.5	 0.0	 1.0	 100.0	 1	 0.0	 -449.0; % NUC
	4039	 102.0	 0.0	 102.0	 -102.0	 1.0	 100.0	 1	 204.0	 0.0; % COW
	4039	 1459.0	 0.0	 1459.0	 -1459.0	 1.0	 100.0	 1	 2918.0	 0.0; % COW