%%%%%%%%%%%%%%%%%%%%%%%%%%%%%%%%%%%%%%%%%%%%%%%%%%%%%%%%%%%%%%%%%%%%%%%%%%%
%%%%                                                                  %%%%%
%%%%    IEEE PES Power Grid Library - Optimal Power Flow - v21.07     %%%%%
%%%%          (https://github.com/power-grid-lib/pglib-opf)           %%%%%
%%%%               Benchmark Group - Typical Operations               %%%%%
%%%%                         29 - July - 2021                         %%%%%
%%%%                                                                  %%%%%
%%%%%%%%%%%%%%%%%%%%%%%%%%%%%%%%%%%%%%%%%%%%%%%%%%%%%%%%%%%%%%%%%%%%%%%%%%%
%
%   A 3,022 bus model created by the Sustainable Data Evolution Technology (SDET)
%   tool for use in ARPA-e's Grid Optimization Competition, Challenge 1.
%
%   https://gocompetition.energy.gov/challenges/22/datasets
%
%   Developed by Renke Huang and Ahmad Tbaileh,
%   Pacific Northwest National Laboratory, U.S.A.
%   Provided in the public domain. February, 2020
%
function mpc = pglib_opf_case3022_goc
mpc.version = '2';
mpc.baseMVA = 100.0;

%% bus data
%	bus_i	type	Pd	Qd	Gs	Bs	area	Vm	Va	baseKV	zone	Vmax	Vmin
mpc.bus = [
	1	 1	 0.0	 0.0	 0.0	 10.7088450599	 1	    1.00000	    0.00000	 230.0	 1	    1.05000	    0.95000;
	2	 1	 0.0	 0.0	 0.0	 0.0	 1	    1.00772	    0.00000	 1.0	 1	    1.06544	    0.95000;
	3	 1	 0.0	 0.0	 0.0	 -18.6298909061	 1	    1.00000	    0.00000	 115.0	 1	    1.05000	    0.95000;
	4	 1	 -87.672	 20.928	 0.0	 8.95926743971	 1	    1.00000	    0.00000	 115.0	 1	    1.05000	    0.95000;
	5	 1	 112.958	 -26.822	 0.0	 10.4858880796	 1	    1.00000	    0.00000	 115.0	 1	    1.05000	    0.95000;
	6	 1	 0.0	 0.0	 0.0	 0.0	 1	    1.00000	    0.00000	 230.0	 1	    1.05000	    0.95000;
	7	 1	 -146.866	 -0.759	 0.0	 -15.929963951	 1	    1.00000	    0.00000	 115.0	 1	    1.05000	    0.95000;
	8	 1	 0.0	 0.0	 0.0	 27.5488096085	 1	    1.00000	    0.00000	 115.0	 1	    1.05000	    0.95000;
	9	 2	 100.773	 -42.513	 0.0	 0.0	 1	    1.00000	    0.00000	 115.0	 1	    1.05000	    0.95000;
	10	 1	 0.0	 0.0	 0.0	 -0.00247428697143	 1	    1.00000	    0.00000	 115.0	 1	    1.05000	    0.95000;
	11	 1	 42.282	 5.533	 0.0	 0.0	 1	    1.00000	    0.00000	 115.0	 1	    1.05000	    0.95000;
	12	 1	 22.891	 2.788	 0.0	 2.65714737811	 1	    1.00000	    0.00000	 230.0	 1	    1.05000	    0.95000;
	13	 1	 0.0	 0.0	 0.0	 -27.9687572032	 1	    1.00000	    0.00000	 230.0	 1	    1.05000	    0.95000;
	14	 1	 259.475	 -10.863	 0.0	 2.47605317836e-05	 1	    1.00772	    0.00000	 345.0	 1	    1.06544	    0.95000;
	15	 1	 -87.69	 20.928	 0.0	 8.99926608727	 1	    1.00000	    0.00000	 115.0	 1	    1.05000	    0.95000;
	16	 1	 123.768	 -1.149	 0.0	 -17.445	 1	    1.00000	    0.00000	 230.0	 1	    1.05000	    0.95000;
	17	 1	 26.673	 7.244	 0.0	 1.56971077193	 1	    1.00000	    0.00000	 230.0	 1	    1.05000	    0.95000;
	18	 1	 38.081	 2.859	 0.0	 21.1150845864	 1	    1.00000	    0.00000	 230.0	 1	    1.05000	    0.95000;
	19	 1	 0.0	 0.0	 0.0	 0.0	 1	    1.01429	    0.00000	 500.0	 1	    1.07859	    0.95000;
	20	 1	 0.0	 0.0	 0.0	 0.0	 1	    1.00772	    0.00000	 1.0	 1	    1.06544	    0.95000;
	21	 1	 -88.375	 27.367	 0.0	 0.0	 1	    1.00000	    0.00000	 22.8	 1	    1.05000	    0.95000;
	22	 1	 0.0	 0.0	 0.0	 47.4985061457	 1	    1.00000	    0.00000	 230.0	 1	    1.05000	    0.95000;
	23	 2	 0.0	 0.0	 0.0	 10.787	 1	    1.00000	    0.00000	 345.0	 1	    1.05000	    0.95000;
	24	 1	 0.0	 0.0	 0.0	 -9.73913034417	 1	    1.00000	    0.00000	 138.0	 1	    1.05000	    0.95000;
	25	 2	 -99.44	 21.918	 0.0	 0.0	 1	    1.00000	    0.00000	 21.0	 1	    1.05000	    0.95000;
	26	 1	 100.532	 -20.512	 0.0	 -1.07635204534	 1	    1.00000	    0.00000	 230.0	 1	    1.05000	    0.95000;
	27	 2	 139.936	 -38.636	 0.0	 0.0	 1	    1.00000	    0.00000	 115.0	 1	    1.05000	    0.95000;
	28	 1	 -200.472	 -6.634	 0.0	 -14.7599583523	 1	    1.00826	    0.00000	 115.0	 1	    1.06652	    0.95000;
	29	 1	 0.0	 0.0	 0.0	 3.32755327965	 1	    1.00000	    0.00000	 115.0	 1	    1.05000	    0.95000;
	30	 1	 81.381	 24.638	 0.0	 44.5470035005	 1	    1.00000	    0.00000	 161.0	 1	    1.05000	    0.95000;
	31	 1	 0.0	 0.0	 0.0	 36.8036356464	 1	    1.00000	    0.00000	 230.0	 1	    1.05000	    0.95000;
	32	 1	 82.398	 -19.261	 0.0	 -0.895305326082	 1	    1.00000	    0.00000	 161.0	 1	    1.05000	    0.95000;
	33	 1	 -45.455	 26.257	 0.0	 6.056789459e-05	 1	    1.00000	    0.00000	 115.0	 1	    1.05000	    0.95000;
	34	 1	 96.915	 77.402	 0.0	 118.618169754	 1	    1.00000	    0.00000	 115.0	 1	    1.05000	    0.95000;
	35	 1	 28.542	 5.107	 0.0	 0.0	 1	    1.00000	    0.00000	 230.0	 1	    1.05000	    0.95000;
	36	 1	 0.0	 0.0	 0.0	 -0.349609780844	 1	    1.00000	    0.00000	 138.0	 1	    1.05000	    0.95000;
	37	 1	 0.0	 0.0	 0.0	 -2.33996268212	 1	    1.00000	    0.00000	 230.0	 1	    1.05000	    0.95000;
	38	 1	 0.0	 0.0	 0.0	 -9.08994151997	 1	    1.00000	    0.00000	 230.0	 1	    1.05000	    0.95000;
	39	 1	 0.0	 0.0	 0.0	 4.25160694973e-05	 1	    1.00972	    0.00000	 230.0	 1	    1.06945	    0.95000;
	40	 1	 0.0	 0.0	 0.0	 0.0	 1	    1.00000	    0.00000	 230.0	 1	    1.05000	    0.95000;
	41	 1	 0.0	 0.0	 0.0	 -5.94944609868	 1	    1.00000	    0.00000	 161.0	 1	    1.05000	    0.95000;
	42	 2	 33.761	 5.625	 0.0	 0.0	 1	    1.00000	    0.00000	 230.0	 1	    1.05000	    0.95000;
	43	 1	 0.0	 0.0	 0.0	 -37.4103850833	 1	    1.00000	    0.00000	 230.0	 1	    1.05000	    0.95000;
	44	 1	 -146.857	 -1.277	 0.0	 -16.4699639484	 1	    1.00000	    0.00000	 115.0	 1	    1.05000	    0.95000;
	45	 1	 0.0	 0.0	 0.0	 0.975274527807	 1	    1.00000	    0.00000	 230.0	 1	    1.05000	    0.95000;
	46	 2	 0.0	 0.0	 0.0	 0.0	 1	    1.00000	    0.00000	 1.0	 1	    1.05000	    0.95000;
	47	 1	 141.537	 -33.307	 0.0	 1.52802945537	 1	    1.00000	    0.00000	 115.0	 1	    1.05000	    0.95000;
	48	 1	 0.0	 0.0	 0.0	 10.2595185715	 1	    1.00000	    0.00000	 230.0	 1	    1.05000	    0.95000;
	49	 1	 31.198	 3.941	 0.0	 0.00109973857814	 1	    1.00000	    0.00000	 115.0	 1	    1.05000	    0.95000;
	50	 1	 22.205	 -5.042	 0.0	 29.0439740368	 1	    1.00000	    0.00000	 230.0	 1	    1.05000	    0.95000;
	51	 2	 0.0	 0.0	 0.0	 0.0	 1	    1.00000	    0.00000	 1.0	 1	    1.05000	    0.95000;
	52	 1	 21.576	 2.526	 0.0	 1.14866320306	 1	    1.00000	    0.00000	 230.0	 1	    1.05000	    0.95000;
	53	 1	 0.0	 0.0	 0.0	 -172.229974873	 1	    1.00772	    0.00000	 500.0	 1	    1.06544	    0.95000;
	54	 1	 190.036	 11.916	 0.0	 0.0	 1	    1.00000	    0.00000	 230.0	 1	    1.05000	    0.95000;
	55	 1	 0.0	 0.0	 0.0	 0.0	 1	    1.00000	    0.00000	 25.0	 2	    1.05000	    0.95000;
	56	 1	 0.0	 0.0	 0.0	 0.0	 1	    1.00000	    0.00000	 115.0	 2	    1.05000	    0.95000;
	57	 1	 0.0	 0.0	 0.0	 0.0	 1	    1.00000	    0.00000	 12.0	 2	    1.05000	    0.95000;
	58	 1	 0.0	 0.0	 0.0	 0.0	 1	    1.00000	    0.00000	 115.0	 2	    1.05000	    0.95000;
	59	 1	 10.549	 -8.986	 0.0	 -6.70459040187	 1	    1.00000	    0.00000	 115.0	 2	    1.05000	    0.95000;
	60	 2	 0.0	 0.0	 0.0	 0.0	 1	    1.00000	    0.00000	 25.0	 2	    1.05000	    0.95000;
	61	 1	 -0.481	 0.546	 0.0	 0.0	 1	    1.00000	    0.00000	 22.0	 2	    1.05000	    0.95000;
	62	 1	 0.0	 0.0	 0.0	 0.0	 1	    1.00000	    0.00000	 115.0	 2	    1.05000	    0.95000;
	63	 1	 9.4	 -0.518	 0.0	 0.0	 1	    1.00000	    0.00000	 115.0	 2	    1.05000	    0.95000;
	64	 1	 0.0	 0.0	 0.0	 0.0	 1	    1.00000	    0.00000	 115.0	 2	    1.05000	    0.95000;
	65	 1	 0.0	 0.0	 0.0	 0.0	 1	    1.00000	    0.00000	 25.0	 2	    1.05000	    0.95000;
	66	 1	 3.756	 -5.847	 0.0	 -15.861	 1	    1.00000	    0.00000	 115.0	 2	    1.05000	    0.95000;
	67	 1	 0.0	 0.0	 0.0	 0.0	 1	    1.00000	    0.00000	 115.0	 2	    1.05000	    0.95000;
	68	 1	 0.0	 0.0	 0.0	 0.0	 1	    1.00000	    0.00000	 12.0	 2	    1.05000	    0.95000;
	69	 1	 0.0	 0.0	 0.0	 0.0	 1	    1.00000	    0.00000	 115.0	 2	    1.05000	    0.95000;
	70	 2	 0.0	 0.0	 0.0	 0.0	 1	    1.00000	    0.00000	 34.5	 2	    1.05000	    0.95000;
	71	 1	 0.0	 0.0	 0.0	 0.0	 1	    1.00000	    0.00000	 1.0	 3	    1.05000	    0.95000;
	72	 1	 0.0	 0.0	 0.0	 0.0	 1	    1.00000	    0.00000	 345.0	 3	    1.05000	    0.95000;
	73	 2	 0.0	 0.0	 0.0	 0.0	 1	    1.00000	    0.00000	 765.0	 3	    1.05000	    0.95000;
	74	 1	 65.606	 30.013	 0.0	 17.9999729176	 1	    1.00000	    0.00000	 138.0	 3	    1.05000	    0.95000;
	75	 3	 27.509	 -14.278	 0.0	 0.0	 1	    1.00000	    0.00000	 345.0	 3	    1.05000	    0.95000;
	76	 1	 0.0	 0.0	 0.0	 0.0	 1	    1.00000	    0.00000	 345.0	 3	    1.05000	    0.95000;
	77	 1	 5.042	 1.397	 0.0	 0.000101257434274	 1	    1.00000	    0.00000	 138.0	 3	    1.05000	    0.95000;
	78	 2	 10.362	 -0.601	 0.0	 0.0	 1	    1.00000	    0.00000	 138.0	 3	    1.05000	    0.95000;
	79	 1	 51.894	 -1.369	 0.0	 0.0	 1	    1.00000	    0.00000	 138.0	 3	    1.05000	    0.95000;
	80	 1	 0.0	 0.0	 0.0	 0.0	 1	    1.00000	    0.00000	 18.0	 3	    1.05000	    0.95000;
	81	 1	 19.781	 4.459	 0.0	 0.0	 1	    1.00000	    0.00000	 138.0	 3	    1.05000	    0.95000;
	82	 1	 0.0	 0.0	 0.0	 0.0	 1	    1.00000	    0.00000	 13.8	 3	    1.05000	    0.95000;
	83	 1	 -6.023	 6.032	 0.0	 0.0	 1	    1.00000	    0.00000	 345.0	 3	    1.05000	    0.95000;
	84	 1	 0.0	 0.0	 0.0	 0.0	 1	    1.00000	    0.00000	 345.0	 3	    1.05000	    0.95000;
	85	 1	 27.618	 2.498	 0.0	 0.0	 1	    1.00000	    0.00000	 138.0	 3	    1.05000	    0.95000;
	86	 1	 43.725	 5.274	 0.0	 0.0	 1	    1.00000	    0.00000	 138.0	 3	    1.05000	    0.95000;
	87	 1	 440.096	 7.094	 0.0	 0.0	 1	    1.00000	    0.00000	 345.0	 3	    1.05000	    0.95000;
	88	 1	 49.09	 12.78	 0.0	 0.0	 1	    1.00000	    0.00000	 345.0	 3	    1.05000	    0.95000;
	89	 1	 175.569	 2.033	 0.0	 0.0	 1	    1.00000	    0.00000	 345.0	 3	    1.05000	    0.95000;
	90	 1	 32.114	 8.836	 0.0	 0.0	 1	    1.00000	    0.00000	 138.0	 3	    1.05000	    0.95000;
	91	 1	 9.326	 2.22	 0.0	 0.0	 1	    1.00000	    0.00000	 138.0	 3	    1.05000	    0.95000;
	92	 1	 36.222	 -4.376	 0.0	 17.9999163045	 1	    1.00000	    0.00000	 138.0	 3	    1.05000	    0.95000;
	93	 1	 126.715	 -21.509	 0.0	 0.0	 1	    1.00000	    0.00000	 345.0	 3	    1.05000	    0.95000;
	94	 1	 19.078	 3.867	 0.0	 6.72995032906	 1	    1.00000	    0.00000	 138.0	 3	    1.05000	    0.95000;
	95	 1	 0.0	 0.0	 0.0	 0.0	 1	    1.00000	    0.00000	 345.0	 3	    1.05000	    0.95000;
	96	 2	 14.914	 3.164	 0.0	 0.0	 1	    1.00000	    0.00000	 138.0	 3	    1.05000	    0.95000;
	97	 1	 141.874	 -28.757	 0.0	 0.0	 1	    1.00000	    0.00000	 138.0	 3	    1.05000	    0.95000;
	98	 1	 26.007	 9.641	 0.0	 0.0	 1	    1.00000	    0.00000	 138.0	 3	    1.05000	    0.95000;
	99	 1	 43.939	 9.981	 0.0	 17.0424703175	 1	    1.00000	    0.00000	 138.0	 3	    1.05000	    0.95000;
	100	 1	 0.0	 0.0	 0.0	 0.0	 1	    1.00000	    0.00000	 1.0	 3	    1.05000	    0.95000;
	101	 1	 0.0	 0.0	 0.0	 0.0	 1	    1.00000	    0.00000	 345.0	 3	    1.05000	    0.95000;
	102	 1	 0.0	 0.0	 0.0	 0.0	 1	    1.00000	    0.00000	 138.0	 3	    1.05000	    0.95000;
	103	 1	 29.292	 -24.573	 0.0	 0.0	 1	    1.00000	    0.00000	 138.0	 3	    1.05000	    0.95000;
	104	 1	 0.0	 0.0	 0.0	 0.0	 1	    1.00000	    0.00000	 345.0	 3	    1.05000	    0.95000;
	105	 1	 0.0	 0.0	 0.0	 0.0	 1	    1.00000	    0.00000	 345.0	 3	    1.05000	    0.95000;
	106	 1	 0.0	 0.0	 0.0	 0.0	 1	    1.00000	    0.00000	 13.8	 3	    1.05000	    0.95000;
	107	 1	 4.173	 2.23	 0.0	 2.99974245453	 1	    1.00000	    0.00000	 138.0	 3	    1.05000	    0.95000;
	108	 1	 0.0	 0.0	 0.0	 0.0	 1	    1.00000	    0.00000	 345.0	 3	    1.05000	    0.95000;
	109	 1	 81.731	 -8.477	 0.0	 0.0	 1	    1.00000	    0.00000	 345.0	 3	    1.05000	    0.95000;
	110	 1	 0.0	 0.0	 0.0	 7.77591109521	 1	    1.00000	    0.00000	 138.0	 3	    1.05000	    0.95000;
	111	 1	 0.0	 0.0	 0.0	 0.0	 1	    1.00000	    0.00000	 138.0	 3	    1.05000	    0.95000;
	112	 2	 21.751	 27.682	 0.0	 0.0	 1	    1.00000	    0.00000	 138.0	 3	    1.05000	    0.95000;
	113	 1	 631.406	 -96.165	 0.0	 0.0	 1	    1.00000	    0.00000	 345.0	 3	    1.05000	    0.95000;
	114	 1	 70.596	 -16.946	 0.0	 -17.2793617853	 1	    1.00000	    0.00000	 138.0	 3	    1.05000	    0.95000;
	115	 1	 30.31	 13.082	 0.0	 0.0	 1	    1.00000	    0.00000	 138.0	 3	    1.05000	    0.95000;
	116	 2	 26.683	 1.48	 0.0	 51.25	 1	    1.00000	    0.00000	 138.0	 3	    1.05000	    0.95000;
	117	 1	 14.516	 -2.998	 0.0	 0.0	 1	    1.00000	    0.00000	 13.8	 3	    1.05000	    0.95000;
	118	 1	 0.0	 0.0	 0.0	 0.0	 1	    1.00000	    0.00000	 345.0	 3	    1.05000	    0.95000;
	119	 1	 -1.591	 5.727	 0.0	 0.0	 1	    1.00000	    0.00000	 24.0	 3	    1.05000	    0.95000;
	120	 1	 0.0	 0.0	 0.0	 0.0	 1	    1.00000	    0.00000	 138.0	 3	    1.05000	    0.95000;
	121	 1	 0.0	 0.0	 0.0	 0.0	 1	    1.00000	    0.00000	 345.0	 3	    1.05000	    0.95000;
	122	 1	 2.785	 -9.493	 0.0	 8.54916974918e-05	 1	    1.00000	    0.00000	 138.0	 3	    1.05000	    0.95000;
	123	 1	 33.057	 1.721	 0.0	 0.0	 1	    1.00000	    0.00000	 138.0	 3	    1.05000	    0.95000;
	124	 1	 0.0	 0.0	 0.0	 0.0	 1	    1.00000	    0.00000	 138.0	 3	    1.05000	    0.95000;
	125	 1	 0.0	 0.0	 0.0	 0.0	 1	    1.00000	    0.00000	 18.0	 3	    1.05000	    0.95000;
	126	 1	 0.0	 0.0	 0.0	 0.0	 1	    1.00000	    0.00000	 18.0	 3	    1.05000	    0.95000;
	127	 1	 0.0	 0.0	 0.0	 0.0	 1	    1.00000	    0.00000	 345.0	 3	    1.05000	    0.95000;
	128	 1	 31.587	 9.021	 0.0	 0.0	 1	    1.00000	    0.00000	 138.0	 3	    1.05000	    0.95000;
	129	 2	 -1.601	 5.607	 0.0	 0.0	 1	    1.00000	    0.00000	 24.0	 3	    1.05000	    0.95000;
	130	 1	 -42.957	 4.376	 0.0	 0.0	 1	    1.00000	    0.00000	 138.0	 3	    1.05000	    0.95000;
	131	 1	 3.599	 1.11	 0.0	 -5.34587821331	 1	    1.00000	    0.00000	 138.0	 3	    1.05000	    0.95000;
	132	 1	 113.263	 14.479	 0.0	 0.0	 1	    1.00000	    0.00000	 138.0	 3	    1.05000	    0.95000;
	133	 1	 41.208	 17.209	 0.0	 6.68996138034	 1	    1.00000	    0.00000	 138.0	 3	    1.05000	    0.95000;
	134	 1	 21.751	 12.962	 0.0	 7.69978252224	 1	    1.00000	    0.00000	 138.0	 3	    1.05000	    0.95000;
	135	 1	 0.0	 0.0	 0.0	 0.0	 1	    1.00000	    0.00000	 345.0	 3	    1.05000	    0.95000;
	136	 1	 2.889	 -10.705	 0.0	 -6.75633000352	 1	    1.00000	    0.00000	 138.0	 3	    1.05000	    0.95000;
	137	 1	 0.0	 0.0	 0.0	 0.0	 1	    1.00000	    0.00000	 345.0	 3	    1.05000	    0.95000;
	138	 1	 29.125	 3.386	 0.0	 0.0	 1	    1.00000	    0.00000	 138.0	 3	    1.05000	    0.95000;
	139	 1	 -4.691	 0.111	 0.0	 6.74995867	 1	    1.00000	    0.00000	 138.0	 3	    1.05000	    0.95000;
	140	 1	 14.526	 -2.998	 0.0	 0.0	 1	    1.00000	    0.00000	 13.8	 3	    1.05000	    0.95000;
	141	 2	 0.0	 0.0	 0.0	 0.0	 1	    1.00000	    0.00000	 345.0	 3	    1.05000	    0.95000;
	142	 1	 0.0	 0.0	 0.0	 -249.996582478	 1	    1.00000	    0.00000	 345.0	 3	    1.05000	    0.95000;
	143	 1	 0.0	 0.0	 0.0	 0.0	 1	    1.00000	    0.00000	 345.0	 3	    1.05000	    0.95000;
	144	 1	 11.658	 0.731	 0.0	 2.33991149862	 1	    1.00000	    0.00000	 138.0	 3	    1.05000	    0.95000;
	145	 1	 32.317	 9.687	 0.0	 0.0	 1	    1.00000	    0.00000	 138.0	 3	    1.05000	    0.95000;
	146	 1	 5.533	 9.317	 0.0	 0.0	 1	    1.00000	    0.00000	 138.0	 3	    1.05000	    0.95000;
	147	 2	 17.051	 3.969	 0.0	 0.0	 1	    1.00000	    0.00000	 138.0	 3	    1.05000	    0.95000;
	148	 1	 28.024	 14.156	 0.0	 0.0	 1	    1.00000	    0.00000	 138.0	 3	    1.05000	    0.95000;
	149	 1	 35.185	 19.42	 0.0	 13.5364791991	 1	    1.00000	    0.00000	 138.0	 3	    1.05000	    0.95000;
	150	 1	 0.962	 2.933	 0.0	 0.0	 1	    1.00000	    0.00000	 138.0	 3	    1.05000	    0.95000;
	151	 1	 0.0	 0.0	 0.0	 0.0	 1	    1.00000	    0.00000	 230.0	 4	    1.05000	    0.95000;
	152	 2	 0.0	 0.0	 0.0	 0.0	 1	    1.00000	    0.00000	 25.0	 4	    1.05000	    0.95000;
	153	 1	 28.293	 4.941	 0.0	 0.0	 1	    1.00000	    0.00000	 115.0	 4	    1.05000	    0.95000;
	154	 2	 36.027	 -0.712	 0.0	 0.0	 1	    1.00000	    0.00000	 46.0	 4	    1.05000	    0.95000;
	155	 1	 0.0	 0.0	 0.0	 0.0	 1	    1.00000	    0.00000	 115.0	 4	    1.05000	    0.95000;
	156	 1	 8.993	 1.305	 0.0	 0.0	 1	    1.00000	    0.00000	 115.0	 4	    1.05000	    0.95000;
	157	 1	 0.0	 0.0	 0.0	 0.0	 1	    1.00000	    0.00000	 46.0	 4	    1.05000	    0.95000;
	158	 1	 0.0	 0.0	 0.0	 0.0	 1	    1.00000	    0.00000	 115.0	 4	    1.05000	    0.95000;
	159	 1	 7.115	 1.601	 0.0	 0.0	 1	    1.00000	    0.00000	 46.0	 4	    1.05000	    0.95000;
	160	 1	 131.274	 -62.291	 0.0	 -59.884	 1	    1.00000	    0.00000	 230.0	 4	    1.05000	    0.95000;
	161	 1	 16.515	 6.06	 0.0	 0.0	 1	    1.00000	    0.00000	 46.0	 4	    1.05000	    0.95000;
	162	 1	 20.678	 4.756	 0.0	 0.0	 1	    1.00000	    0.00000	 115.0	 4	    1.05000	    0.95000;
	163	 1	 5.884	 1.064	 0.0	 0.0	 1	    1.00000	    0.00000	 13.8	 4	    1.05000	    0.95000;
	164	 1	 7.901	 -1.194	 0.0	 0.0	 1	    1.00000	    0.00000	 115.0	 4	    1.05000	    0.95000;
	165	 1	 31.05	 2.535	 0.0	 0.0	 1	    1.00000	    0.00000	 115.0	 4	    1.05000	    0.95000;
	166	 1	 13.351	 0.185	 0.0	 0.0	 1	    1.00000	    0.00000	 115.0	 4	    1.05000	    0.95000;
	167	 1	 0.0	 0.0	 0.0	 0.0	 1	    1.00000	    0.00000	 230.0	 4	    1.05000	    0.95000;
	168	 1	 6.541	 -1.554	 0.0	 0.0	 1	    1.00000	    0.00000	 115.0	 4	    1.05000	    0.95000;
	169	 1	 0.0	 0.0	 0.0	 0.0	 1	    1.00000	    0.00000	 115.0	 4	    1.05000	    0.95000;
	170	 1	 8.91	 0.879	 0.0	 0.0	 1	    1.00000	    0.00000	 115.0	 4	    1.05000	    0.95000;
	171	 1	 0.0	 0.0	 0.0	 0.0	 1	    1.00000	    0.00000	 230.0	 4	    1.05000	    0.95000;
	172	 1	 0.0	 0.0	 0.0	 0.0	 1	    1.00000	    0.00000	 115.0	 4	    1.05000	    0.95000;
	173	 1	 21.65	 0.749	 0.0	 0.0	 1	    1.00000	    0.00000	 46.0	 4	    1.05000	    0.95000;
	174	 1	 -0.379	 -1.277	 0.0	 0.0	 1	    1.00000	    0.00000	 115.0	 4	    1.05000	    0.95000;
	175	 1	 0.0	 0.0	 0.0	 0.0	 1	    1.00000	    0.00000	 115.0	 4	    1.05000	    0.95000;
	176	 1	 23.481	 -5.293	 0.0	 0.0	 1	    1.00000	    0.00000	 115.0	 4	    1.05000	    0.95000;
	177	 1	 143.394	 -29.945	 0.0	 0.0	 1	    1.00000	    0.00000	 230.0	 4	    1.05000	    0.95000;
	178	 1	 0.0	 0.0	 0.0	 0.0	 1	    1.00000	    0.00000	 34.5	 4	    1.05000	    0.95000;
	179	 1	 0.0	 0.0	 0.0	 0.0	 1	    1.00000	    0.00000	 13.8	 4	    1.05000	    0.95000;
	180	 1	 48.003	 -21.647	 0.0	 0.0	 1	    1.00000	    0.00000	 115.0	 4	    1.05000	    0.95000;
	181	 1	 8.068	 -0.648	 0.0	 0.0	 1	    1.00000	    0.00000	 46.0	 4	    1.05000	    0.95000;
	182	 1	 0.0	 0.0	 0.0	 0.0	 1	    1.00000	    0.00000	 34.5	 4	    1.05000	    0.95000;
	183	 1	 5.607	 -1.434	 0.0	 0.0	 1	    1.00000	    0.00000	 115.0	 4	    1.05000	    0.95000;
	184	 1	 10.908	 2.156	 0.0	 0.0	 1	    1.00000	    0.00000	 46.0	 4	    1.05000	    0.95000;
	185	 1	 0.0	 0.0	 0.0	 0.0	 1	    1.00000	    0.00000	 115.0	 4	    1.05000	    0.95000;
	186	 1	 0.0	 0.0	 0.0	 0.0	 1	    1.00000	    0.00000	 230.0	 4	    1.05000	    0.95000;
	187	 1	 6.005	 -1.425	 0.0	 0.0	 1	    1.00000	    0.00000	 115.0	 4	    1.05000	    0.95000;
	188	 1	 5.273	 -4.154	 0.0	 0.0	 1	    1.00000	    0.00000	 115.0	 4	    1.05000	    0.95000;
	189	 1	 0.0	 0.0	 0.0	 0.0	 1	    1.00000	    0.00000	 230.0	 4	    1.05000	    0.95000;
	190	 1	 7.725	 0.435	 0.0	 0.0	 1	    1.00000	    0.00000	 46.0	 4	    1.05000	    0.95000;
	191	 1	 -0.481	 0.546	 0.0	 0.0	 1	    1.00000	    0.00000	 22.0	 4	    1.05000	    0.95000;
	192	 1	 0.0	 0.0	 0.0	 9.19999579897	 1	    1.00000	    0.00000	 34.5	 4	    1.05000	    0.95000;
	193	 1	 87.811	 -13.624	 0.0	 0.0	 1	    1.00000	    0.00000	 115.0	 4	    1.05000	    0.95000;
	194	 1	 0.0	 0.0	 0.0	 0.0	 1	    1.00000	    0.00000	 46.0	 4	    1.05000	    0.95000;
	195	 1	 7.975	 -2.341	 0.0	 0.0	 1	    1.00000	    0.00000	 46.0	 4	    1.05000	    0.95000;
	196	 1	 0.0	 0.0	 0.0	 0.0	 1	    1.00000	    0.00000	 34.5	 4	    1.05000	    0.95000;
	197	 1	 0.0	 0.0	 0.0	 0.0	 1	    1.00000	    0.00000	 46.0	 4	    1.05000	    0.95000;
	198	 1	 0.0	 0.0	 0.0	 0.0	 1	    1.00000	    0.00000	 115.0	 4	    1.05000	    0.95000;
	199	 1	 0.0	 0.0	 0.0	 0.0	 1	    1.00000	    0.00000	 34.5	 4	    1.05000	    0.95000;
	200	 1	 10.936	 -0.583	 0.0	 0.0	 1	    1.00000	    0.00000	 46.0	 4	    1.05000	    0.95000;
	201	 1	 6.661	 2.285	 0.0	 0.0	 1	    1.00000	    0.00000	 46.0	 4	    1.05000	    0.95000;
	202	 1	 0.0	 0.0	 0.0	 0.0	 1	    1.00000	    0.00000	 115.0	 4	    1.05000	    0.95000;
	203	 1	 2.738	 -24.814	 0.0	 0.0	 1	    1.00000	    0.00000	 230.0	 4	    1.05000	    0.95000;
	204	 1	 67.773	 -34.499	 0.0	 -32.353	 1	    1.00000	    0.00000	 1.0	 4	    1.05000	    0.95000;
	205	 1	 0.0	 0.0	 0.0	 0.0	 1	    1.00000	    0.00000	 46.0	 4	    1.05000	    0.95000;
	206	 1	 -1.693	 -0.379	 0.0	 0.0	 1	    1.00000	    0.00000	 34.5	 4	    1.05000	    0.95000;
	207	 1	 -0.305	 4.533	 0.0	 0.0	 1	    1.00000	    0.00000	 46.0	 4	    1.05000	    0.95000;
	208	 1	 13.591	 0.074	 0.0	 0.0	 1	    1.00000	    0.00000	 115.0	 4	    1.05000	    0.95000;
	209	 1	 0.0	 0.0	 0.0	 0.0	 1	    1.00000	    0.00000	 230.0	 4	    1.05000	    0.95000;
	210	 1	 0.0	 0.0	 0.0	 0.0	 1	    1.00000	    0.00000	 46.0	 4	    1.05000	    0.95000;
	211	 2	 0.0	 0.0	 0.0	 0.0	 1	    1.00000	    0.00000	 34.5	 4	    1.05000	    0.95000;
	212	 1	 0.0	 0.0	 0.0	 0.0	 1	    1.00000	    0.00000	 46.0	 4	    1.05000	    0.95000;
	213	 1	 0.0	 0.0	 0.0	 0.0	 1	    1.00000	    0.00000	 115.0	 4	    1.05000	    0.95000;
	214	 1	 25.646	 -0.648	 0.0	 0.0	 1	    1.00000	    0.00000	 46.0	 4	    1.05000	    0.95000;
	215	 1	 4.117	 2.526	 0.0	 0.0	 1	    1.00000	    0.00000	 115.0	 4	    1.05000	    0.95000;
	216	 1	 26.155	 3.016	 0.0	 0.0	 1	    1.00000	    0.00000	 115.0	 4	    1.05000	    0.95000;
	217	 1	 22.362	 12.842	 0.0	 0.0	 1	    1.00000	    0.00000	 20.0	 4	    1.05000	    0.95000;
	218	 1	 18.448	 1.073	 0.0	 0.0	 1	    1.00000	    0.00000	 46.0	 4	    1.05000	    0.95000;
	219	 1	 8.66	 5.089	 0.0	 0.0	 1	    1.00000	    0.00000	 115.0	 4	    1.05000	    0.95000;
	220	 1	 5.496	 1.11	 0.0	 0.0	 1	    1.00000	    0.00000	 46.0	 4	    1.05000	    0.95000;
	221	 1	 34.001	 4.654	 0.0	 0.0	 1	    1.00000	    0.00000	 115.0	 4	    1.05000	    0.95000;
	222	 1	 3.756	 -5.847	 0.0	 0.0	 1	    1.00000	    0.00000	 115.0	 4	    1.05000	    0.95000;
	223	 1	 6.338	 0.194	 0.0	 12.54	 1	    1.00000	    0.00000	 115.0	 4	    1.05000	    0.95000;
	224	 1	 0.0	 0.0	 0.0	 0.0	 1	    1.00000	    0.00000	 22.0	 4	    1.05000	    0.95000;
	225	 1	 0.0	 0.0	 0.0	 3.413	 1	    1.00000	    0.00000	 115.0	 4	    1.05000	    0.95000;
	226	 1	 55.221	 -10.549	 0.0	 0.0	 1	    1.00000	    0.00000	 115.0	 4	    1.05000	    0.95000;
	227	 1	 -1.749	 0.416	 0.0	 0.0	 1	    1.00000	    0.00000	 115.0	 4	    1.05000	    0.95000;
	228	 1	 15.071	 5.292	 0.0	 0.0	 1	    1.00000	    0.00000	 46.0	 4	    1.05000	    0.95000;
	229	 1	 22.945	 2.369	 0.0	 0.0	 1	    0.99900	    0.00000	 115.0	 4	    1.05000	    0.94799;
	230	 1	 0.0	 0.0	 0.0	 0.0	 1	    1.00000	    0.00000	 115.0	 4	    1.05000	    0.95000;
	231	 1	 2.813	 -2.257	 0.0	 0.0	 1	    1.00000	    0.00000	 115.0	 4	    1.05000	    0.95000;
	232	 1	 0.0	 0.0	 0.0	 0.0	 1	    1.00000	    0.00000	 115.0	 4	    1.05000	    0.95000;
	233	 1	 10.89	 -0.176	 0.0	 0.0	 1	    1.00000	    0.00000	 46.0	 4	    1.05000	    0.95000;
	234	 1	 0.0	 0.0	 0.0	 0.0	 1	    1.00000	    0.00000	 230.0	 4	    1.05000	    0.95000;
	235	 1	 5.894	 -0.527	 0.0	 0.0	 1	    1.00000	    0.00000	 115.0	 4	    1.05000	    0.95000;
	236	 1	 8.993	 -0.768	 0.0	 0.0	 1	    1.00000	    0.00000	 115.0	 4	    1.05000	    0.95000;
	237	 1	 0.0	 0.0	 0.0	 0.0	 1	    1.00000	    0.00000	 46.0	 4	    1.05000	    0.95000;
	238	 1	 0.0	 0.0	 0.0	 0.0	 1	    1.00000	    0.00000	 115.0	 4	    1.05000	    0.95000;
	239	 1	 1.564	 7.633	 0.0	 0.0	 1	    1.00000	    0.00000	 115.0	 4	    1.05000	    0.95000;
	240	 1	 0.0	 0.0	 0.0	 0.0	 1	    1.00000	    0.00000	 46.0	 4	    1.05000	    0.95000;
	241	 1	 20.217	 -9.557	 0.0	 -0.0026071761429	 1	    1.00000	    0.00000	 115.0	 4	    1.05000	    0.95000;
	242	 1	 0.0	 0.0	 0.0	 0.0	 1	    1.00000	    0.00000	 115.0	 4	    1.05000	    0.95000;
	243	 2	 0.0	 0.0	 0.0	 0.0	 1	    1.00000	    0.00000	 230.0	 4	    1.05000	    0.95000;
	244	 1	 20.142	 0.185	 0.0	 0.0	 1	    1.00000	    0.00000	 115.0	 4	    1.05000	    0.95000;
	245	 1	 0.0	 0.0	 0.0	 0.0	 1	    1.00000	    0.00000	 115.0	 4	    1.05000	    0.95000;
	246	 1	 8.299	 2.322	 0.0	 0.0	 1	    1.00000	    0.00000	 115.0	 4	    1.05000	    0.95000;
	247	 1	 0.0	 0.0	 0.0	 0.0	 1	    1.00000	    0.00000	 46.0	 4	    1.05000	    0.95000;
	248	 1	 9.992	 2.359	 0.0	 0.0	 1	    1.00000	    0.00000	 46.0	 4	    1.05000	    0.95000;
	249	 1	 10.399	 1.249	 0.0	 0.0	 1	    1.00000	    0.00000	 46.0	 4	    1.05000	    0.95000;
	250	 1	 0.0	 0.0	 0.0	 0.0	 1	    1.00000	    0.00000	 1.0	 5	    1.05000	    0.95000;
	251	 1	 0.0	 0.0	 0.0	 -62.2740927245	 1	    1.00000	    0.00000	 230.0	 5	    1.05000	    0.95000;
	252	 1	 0.0	 0.0	 0.0	 0.0	 1	    1.00000	    0.00000	 18.0	 5	    1.05000	    0.95000;
	253	 1	 35.167	 6.615	 0.0	 0.0	 1	    1.00000	    0.00000	 26.4	 5	    1.05000	    0.95000;
	254	 1	 16.302	 -1.499	 0.0	 0.0	 1	    1.00000	    0.00000	 230.0	 5	    1.05000	    0.95000;
	255	 1	 0.0	 0.0	 0.0	 0.0	 1	    1.00000	    0.00000	 230.0	 5	    1.05000	    0.95000;
	256	 1	 43.706	 1.962	 0.0	 0.0	 1	    1.00000	    0.00000	 26.4	 5	    1.05000	    0.95000;
	257	 1	 0.0	 0.0	 0.0	 0.0	 1	    1.00000	    0.00000	 13.8	 5	    1.05000	    0.95000;
	258	 1	 0.0	 0.0	 0.0	 0.0	 1	    1.00000	    0.00000	 13.8	 5	    1.05000	    0.95000;
	259	 1	 12.555	 0.574	 0.0	 0.0	 1	    1.00000	    0.00000	 230.0	 5	    1.05000	    0.95000;
	260	 1	 0.0	 0.0	 0.0	 0.0	 1	    1.00000	    0.00000	 230.0	 5	    1.05000	    0.95000;
	261	 1	 0.0	 0.0	 0.0	 0.0	 1	    1.00000	    0.00000	 13.8	 5	    1.05000	    0.95000;
	262	 1	 0.0	 0.0	 0.0	 0.0	 1	    1.00000	    0.00000	 13.8	 5	    1.05000	    0.95000;
	263	 2	 0.0	 0.0	 0.0	 0.0	 1	    1.00000	    0.00000	 13.8	 5	    1.05000	    0.95000;
	264	 1	 33.141	 -3.747	 0.0	 0.0	 1	    1.00000	    0.00000	 138.0	 5	    1.05000	    0.95000;
	265	 1	 0.0	 0.0	 0.0	 0.0	 1	    1.00000	    0.00000	 230.0	 5	    1.05000	    0.95000;
	266	 1	 0.0	 0.0	 0.0	 0.0	 1	    1.00000	    0.00000	 138.0	 5	    1.05000	    0.95000;
	267	 2	 36.61	 3.09	 0.0	 0.0	 1	    1.00000	    0.00000	 230.0	 5	    1.05000	    0.95000;
	268	 1	 0.0	 0.0	 0.0	 0.0	 1	    1.00000	    0.00000	 230.0	 5	    1.05000	    0.95000;
	269	 2	 61.174	 9.252	 0.0	 0.0	 1	    1.00000	    0.00000	 230.0	 5	    1.05000	    0.95000;
	270	 1	 0.0	 0.0	 0.0	 0.0	 1	    1.00000	    0.00000	 230.0	 5	    1.05000	    0.95000;
	271	 1	 0.0	 0.0	 0.0	 0.0	 1	    1.00000	    0.00000	 230.0	 5	    1.05000	    0.95000;
	272	 1	 0.0	 0.0	 0.0	 0.0	 1	    1.00000	    0.00000	 1.0	 5	    1.05000	    0.95000;
	273	 1	 25.859	 8.105	 0.0	 0.0	 1	    1.00000	    0.00000	 230.0	 5	    1.05000	    0.95000;
	274	 2	 0.0	 0.0	 0.0	 0.0	 1	    1.00000	    0.00000	 13.8	 5	    1.05000	    0.95000;
	275	 1	 0.0	 0.0	 0.0	 0.0	 1	    1.00000	    0.00000	 230.0	 5	    1.05000	    0.95000;
	276	 1	 0.0	 0.0	 0.0	 0.0	 1	    1.00000	    0.00000	 13.8	 5	    1.05000	    0.95000;
	277	 1	 0.0	 0.0	 0.0	 0.0	 1	    1.00000	    0.00000	 1.0	 5	    1.05000	    0.95000;
	278	 1	 0.0	 0.0	 0.0	 0.0	 1	    1.00000	    0.00000	 138.0	 5	    1.05000	    0.95000;
	279	 1	 0.0	 0.0	 0.0	 0.0	 1	    1.00000	    0.00000	 17.0	 5	    1.05000	    0.95000;
	280	 1	 0.0	 0.0	 0.0	 0.0	 1	    1.00000	    0.00000	 230.0	 5	    1.05000	    0.95000;
	281	 1	 0.0	 0.0	 0.0	 0.0	 1	    1.00000	    0.00000	 138.0	 5	    1.05000	    0.95000;
	282	 1	 0.0	 0.0	 0.0	 -49.8722633966	 1	    1.00000	    0.00000	 230.0	 5	    1.05000	    0.95000;
	283	 1	 16.126	 1.277	 0.0	 0.0	 1	    1.00000	    0.00000	 13.8	 5	    1.05000	    0.95000;
	284	 1	 68.796	 2.7	 0.0	 0.0	 1	    1.00000	    0.00000	 138.0	 5	    1.05000	    0.95000;
	285	 1	 0.0	 0.0	 0.0	 0.0	 1	    1.00000	    0.00000	 13.8	 5	    1.05000	    0.95000;
	286	 2	 0.0	 0.0	 0.0	 0.0	 1	    1.00000	    0.00000	 500.0	 5	    1.05000	    0.95000;
	287	 1	 32.844	 22.556	 0.0	 0.0	 1	    1.00000	    0.00000	 230.0	 5	    1.05000	    0.95000;
	288	 1	 0.0	 0.0	 0.0	 0.0	 1	    1.00000	    0.00000	 13.8	 5	    1.05000	    0.95000;
	289	 1	 0.0	 0.0	 0.0	 0.0	 1	    1.00000	    0.00000	 18.0	 5	    1.05000	    0.95000;
	290	 1	 0.0	 0.0	 0.0	 0.0	 1	    1.00000	    0.00000	 230.0	 5	    1.05000	    0.95000;
	291	 1	 13.536	 2.119	 0.0	 0.0	 1	    1.00000	    0.00000	 26.4	 5	    1.05000	    0.95000;
	292	 1	 301.845	 72.305	 0.0	 0.0	 1	    1.00000	    0.00000	 345.0	 5	    1.05000	    0.95000;
	293	 2	 0.0	 0.0	 0.0	 0.0	 1	    1.00000	    0.00000	 13.8	 5	    1.05000	    0.95000;
	294	 1	 43.892	 1.572	 0.0	 -4.561	 1	    1.00000	    0.00000	 69.0	 5	    1.05000	    0.95000;
	295	 1	 0.0	 0.0	 0.0	 0.0	 1	    1.00000	    0.00000	 230.0	 5	    1.05000	    0.95000;
	296	 1	 30.652	 16.746	 0.0	 0.0	 1	    1.00000	    0.00000	 138.0	 5	    1.05000	    0.95000;
	297	 1	 0.0	 0.0	 0.0	 0.0	 1	    1.00000	    0.00000	 230.0	 5	    1.05000	    0.95000;
	298	 1	 82.25	 22.834	 0.0	 9.99996483325	 1	    1.00000	    0.00000	 26.4	 5	    1.05000	    0.95000;
	299	 1	 0.0	 0.0	 0.0	 0.0	 1	    1.00000	    0.00000	 345.0	 5	    1.05000	    0.95000;
	300	 1	 0.0	 0.0	 0.0	 -22.762	 1	    1.00000	    0.00000	 345.0	 5	    1.05000	    0.95000;
	301	 1	 0.0	 0.0	 0.0	 0.0	 1	    1.00000	    0.00000	 230.0	 5	    1.05000	    0.95000;
	302	 1	 0.0	 0.0	 0.0	 0.0	 1	    1.00000	    0.00000	 13.8	 5	    1.05000	    0.95000;
	303	 1	 19.984	 0.925	 0.0	 0.0	 1	    1.00000	    0.00000	 13.8	 5	    1.05000	    0.95000;
	304	 1	 0.0	 0.0	 0.0	 0.0	 1	    1.00000	    0.00000	 1.0	 5	    1.05000	    0.95000;
	305	 2	 0.0	 0.0	 0.0	 0.0	 1	    1.00000	    0.00000	 138.0	 5	    1.05000	    0.95000;