%%%%%%%%%%%%%%%%%%%%%%%%%%%%%%%%%%%%%%%%%%%%%%%%%%%%%%%%%%%%%%%%%%%%%%%%%%%
%%%%                                                                  %%%%%
%%%%    IEEE PES Power Grid Library - Optimal Power Flow - v17.07     %%%%%
%%%%          (https://github.com/power-grid-lib/pglib-opf)           %%%%%
%%%%               Benchmark Group - Typical Operations               %%%%%
%%%%                         26 - June - 2017                         %%%%%
%%%%                                                                  %%%%%
%%%%%%%%%%%%%%%%%%%%%%%%%%%%%%%%%%%%%%%%%%%%%%%%%%%%%%%%%%%%%%%%%%%%%%%%%%%
%
%   This is an entirely synthetic 200 bus case, geographically situated
%   in the central part of the US state of Illinois. The case is
%   designed with a 230 and 115 kV transmission network to serve a load
%   that roughly mimics the actual population of its geographic
%   footprint. The synthetic transmission system was designed by
%   algorithms described in [1] to be statistically similar to actual
%   transmission system models but without modeling any actual lines.
%
%   When publishing results based on this data, please cite:
%
%   [1] A.B. Birchfield, T. Xu, K.M. Gegner, K.S. Shetye, T.J. Overbye,
%       "Grid Structural Characteristics as Validation Criteria for
%       Synthetic Networks," IEEE Transactions on Power Systems, 2017.
%
%   Created from Illinois200_DEC-06-2016_v19.pwb, saved by
%   PowerWorld Simulator, version 20 Beta, build date December 2, 2016,
%   then by MATPOWER 6.0.
%
%   Copyright (c) 2016, Power Systems Engineering Research Center (PSERC)
%   Licensed under the Creative Commons Attribution 4.0 International license,
%   http://creativecommons.org/licenses/by/4.0/
%
function mpc = pglib_opf_case200_pserc
mpc.version = '2';
mpc.baseMVA = 100.0;

%% bus data
%	bus_i	type	Pd	Qd	Gs	Bs	area	Vm	Va	baseKV	zone	Vmax	Vmin
mpc.bus = [
	1	 1	 0.0	 0.0	 0.0	 0.0	 1	    0.99873	  -36.48484	 115.0	 1	    1.10000	    0.90000;
	2	 1	 10.95	 3.12	 0.0	 0.0	 1	    0.99855	  -36.50465	 115.0	 1	    1.10000	    0.90000;
	3	 1	 0.0	 0.0	 0.0	 0.0	 1	    1.01033	  -38.18613	 115.0	 1	    1.10000	    0.90000;
	4	 1	 2.72	 0.77	 0.0	 0.0	 1	    1.01029	  -38.19092	 115.0	 1	    1.10000	    0.90000;
	5	 1	 0.0	 0.0	 0.0	 0.0	 1	    1.02317	  -38.81435	 115.0	 1	    1.10000	    0.90000;
	6	 1	 12.5	 3.56	 0.0	 0.0	 1	    1.02297	  -38.83584	 115.0	 1	    1.10000	    0.90000;
	7	 1	 0.0	 0.0	 0.0	 0.0	 1	    0.98952	  -37.64075	 115.0	 1	    1.10000	    0.90000;
	8	 1	 35.2	 10.03	 0.0	 0.0	 1	    0.98897	  -37.70275	 115.0	 1	    1.10000	    0.90000;
	9	 1	 0.0	 0.0	 0.0	 0.0	 1	    0.99393	  -37.02379	 115.0	 1	    1.10000	    0.90000;
	10	 1	 63.29	 18.04	 0.0	 0.0	 1	    0.99283	  -37.16344	 115.0	 1	    1.10000	    0.90000;
	11	 1	 0.0	 0.0	 0.0	 0.0	 1	    1.03491	  -35.62728	 115.0	 1	    1.10000	    0.90000;
	12	 1	 0.49	 0.14	 0.0	 0.0	 1	    1.03490	  -35.62816	 115.0	 1	    1.10000	    0.90000;
	13	 1	 4.04	 1.15	 0.0	 0.0	 1	    1.03484	  -35.63470	 115.0	 1	    1.10000	    0.90000;
	14	 1	 0.0	 0.0	 0.0	 0.0	 1	    1.03312	  -34.38198	 230.0	 1	    1.10000	    0.90000;
	15	 1	 0.0	 0.0	 0.0	 30.0	 1	    1.03559	  -35.49771	 115.0	 1	    1.10000	    0.90000;
	16	 1	 71.7	 20.44	 0.0	 0.0	 1	    1.03457	  -35.61438	 115.0	 1	    1.10000	    0.90000;
	17	 1	 0.0	 0.0	 0.0	 0.0	 1	    1.00113	  -39.16169	 115.0	 1	    1.10000	    0.90000;
	18	 1	 1.14	 0.33	 0.0	 0.0	 1	    1.00112	  -39.16416	 115.0	 1	    1.10000	    0.90000;
	19	 1	 1.23	 0.35	 0.0	 0.0	 1	    1.00112	  -39.16375	 115.0	 1	    1.10000	    0.90000;
	20	 1	 1.81	 0.52	 0.0	 0.0	 1	    1.00111	  -39.16497	 115.0	 1	    1.10000	    0.90000;
	21	 1	 7.38	 2.1	 0.0	 0.0	 1	    1.00101	  -39.17756	 115.0	 1	    1.10000	    0.90000;
	22	 1	 0.0	 0.0	 0.0	 0.0	 1	    1.03446	  -35.65074	 115.0	 1	    1.10000	    0.90000;
	23	 1	 2.26	 0.64	 0.0	 0.0	 1	    1.03443	  -35.65442	 115.0	 1	    1.10000	    0.90000;
	24	 1	 3.84	 1.09	 0.0	 0.0	 1	    1.03440	  -35.65664	 115.0	 1	    1.10000	    0.90000;
	25	 1	 0.0	 0.0	 0.0	 0.0	 1	    1.02571	  -39.09735	 115.0	 1	    1.10000	    0.90000;
	26	 1	 2.13	 0.61	 0.0	 0.0	 1	    1.02568	  -39.10071	 115.0	 1	    1.10000	    0.90000;
	27	 1	 0.0	 0.0	 0.0	 0.0	 1	    1.03505	  -35.78245	 115.0	 1	    1.10000	    0.90000;
	28	 1	 3.74	 1.07	 0.0	 0.0	 1	    1.03499	  -35.79004	 115.0	 1	    1.10000	    0.90000;
	29	 1	 0.0	 0.0	 0.0	 0.0	 1	    0.99886	  -36.22622	 115.0	 1	    1.10000	    0.90000;
	30	 1	 87.62	 24.97	 0.0	 0.0	 1	    0.99746	  -36.37403	 115.0	 1	    1.10000	    0.90000;
	31	 1	 0.0	 0.0	 0.0	 0.0	 1	    0.99938	  -39.56236	 115.0	 1	    1.10000	    0.90000;
	32	 1	 0.7	 0.2	 0.0	 0.0	 1	    0.99937	  -39.56385	 115.0	 1	    1.10000	    0.90000;
	33	 1	 8.82	 2.51	 0.0	 0.0	 1	    0.99924	  -39.58000	 115.0	 1	    1.10000	    0.90000;
	34	 1	 0.0	 0.0	 0.0	 0.0	 1	    1.01793	  -36.92968	 115.0	 1	    1.10000	    0.90000;
	35	 1	 33.26	 9.48	 0.0	 0.0	 1	    1.01740	  -36.99426	 115.0	 1	    1.10000	    0.90000;
	36	 1	 0.0	 0.0	 0.0	 0.0	 1	    1.00593	  -39.69335	 115.0	 1	    1.10000	    0.90000;
	37	 1	 4.89	 1.39	 0.0	 0.0	 1	    1.00586	  -39.70212	 115.0	 1	    1.10000	    0.90000;
	38	 1	 40.81	 11.63	 0.0	 0.0	 1	    1.00525	  -39.77011	 115.0	 1	    1.10000	    0.90000;
	39	 1	 11.86	 3.38	 0.0	 0.0	 1	    0.99887	  -39.91349	 115.0	 1	    1.10000	    0.90000;
	40	 1	 3.28	 0.93	 0.0	 0.0	 1	    0.99882	  -39.91906	 115.0	 1	    1.10000	    0.90000;
	41	 1	 61.87	 17.63	 0.0	 0.0	 1	    1.01504	  -41.82676	 115.0	 1	    1.10000	    0.90000;
	42	 1	 17.01	 4.85	 0.0	 0.0	 1	    1.00706	  -38.64636	 115.0	 1	    1.10000	    0.90000;
	43	 1	 3.09	 0.88	 0.0	 0.0	 1	    0.99438	  -38.62661	 115.0	 1	    1.10000	    0.90000;
	44	 1	 6.65	 1.89	 0.0	 0.0	 1	    1.00490	  -38.49004	 115.0	 1	    1.10000	    0.90000;
	45	 1	 0.0	 0.0	 0.0	 0.0	 1	    1.02776	  -33.75202	 230.0	 1	    1.10000	    0.90000;
	46	 1	 8.68	 2.47	 0.0	 0.0	 1	    1.02521	  -34.63327	 115.0	 1	    1.10000	    0.90000;
	47	 1	 2.47	 0.71	 0.0	 0.0	 1	    1.03164	  -35.01732	 115.0	 1	    1.10000	    0.90000;
	48	 1	 2.87	 0.82	 0.0	 0.0	 1	    1.02047	  -39.10606	 115.0	 1	    1.10000	    0.90000;
	49	 2	 0.0	 0.0	 0.0	 0.0	 1	    1.03228	  -37.82627	 13.8	 1	    1.10000	    0.90000;
	50	 2	 0.0	 0.0	 0.0	 0.0	 1	    1.02956	  -38.13255	 13.8	 1	    1.10000	    0.90000;
	51	 2	 0.0	 0.0	 0.0	 0.0	 1	    1.03383	  -37.62961	 13.8	 1	    1.10000	    0.90000;
	52	 2	 0.0	 0.0	 0.0	 0.0	 1	    1.02908	  -38.19229	 13.8	 1	    1.10000	    0.90000;
	53	 2	 0.0	 0.0	 0.0	 0.0	 1	    1.04000	  -36.32084	 13.8	 1	    1.10000	    0.90000;
	54	 1	 4.27	 1.22	 0.0	 0.0	 1	    1.02791	  -35.51823	 115.0	 1	    1.10000	    0.90000;
	55	 1	 0.0	 0.0	 0.0	 0.0	 1	    1.02472	  -34.50731	 230.0	 1	    1.10000	    0.90000;
	56	 1	 1.79	 0.51	 0.0	 0.0	 1	    1.02318	  -34.88256	 115.0	 1	    1.10000	    0.90000;
	57	 1	 4.52	 1.29	 0.0	 0.0	 1	    1.00556	  -38.95823	 115.0	 1	    1.10000	    0.90000;
	58	 1	 5.79	 1.65	 0.0	 0.0	 1	    1.01304	  -39.47107	 115.0	 1	    1.10000	    0.90000;
	59	 1	 7.02	 2.0	 0.0	 0.0	 1	    0.99170	  -39.28528	 115.0	 1	    1.10000	    0.90000;
	60	 1	 5.63	 1.6	 0.0	 0.0	 1	    1.01351	  -35.18503	 115.0	 1	    1.10000	    0.90000;
	61	 1	 28.14	 8.02	 0.0	 0.0	 1	    1.02135	  -35.14154	 115.0	 1	    1.10000	    0.90000;
	62	 1	 34.29	 9.77	 0.0	 0.0	 1	    1.00133	  -39.62362	 115.0	 1	    1.10000	    0.90000;
	63	 1	 12.79	 3.64	 0.0	 0.0	 1	    1.02757	  -37.02058	 115.0	 1	    1.10000	    0.90000;
	64	 1	 0.0	 0.0	 0.0	 0.0	 1	    1.02911	  -38.08788	 115.0	 1	    1.10000	    0.90000;
	65	 2	 0.0	 0.0	 0.0	 0.0	 1	    1.04000	  -34.79605	 13.8	 1	    1.10000	    0.90000;
	66	 1	 0.0	 0.0	 0.0	 0.0	 1	    1.03578	  -34.43837	 115.0	 1	    1.10000	    0.90000;
	67	 2	 0.0	 0.0	 0.0	 0.0	 1	    1.03976	  -34.10075	 13.8	 1	    1.10000	    0.90000;
	68	 2	 0.0	 0.0	 0.0	 0.0	 1	    1.04000	  -30.50692	 13.8	 1	    1.10000	    0.90000;
	69	 2	 0.0	 0.0	 0.0	 0.0	 1	    1.04000	  -33.03619	 13.8	 1	    1.10000	    0.90000;
	70	 2	 0.0	 0.0	 0.0	 0.0	 1	    1.04000	  -31.48235	 13.8	 1	    1.10000	    0.90000;
	71	 2	 0.0	 0.0	 0.0	 0.0	 1	    1.04000	  -33.23570	 13.8	 1	    1.10000	    0.90000;
	72	 2	 0.0	 0.0	 0.0	 0.0	 1	    1.04000	  -33.33953	 13.8	 1	    1.10000	    0.90000;
	73	 2	 0.0	 0.0	 0.0	 0.0	 1	    1.04000	  -32.27152	 13.8	 1	    1.10000	    0.90000;
	74	 1	 29.51	 8.41	 0.0	 0.0	 1	    1.00954	  -40.16103	 115.0	 1	    1.10000	    0.90000;
	75	 1	 5.34	 1.52	 0.0	 0.0	 1	    1.01451	  -34.71511	 115.0	 1	    1.10000	    0.90000;
	76	 2	 0.0	 0.0	 0.0	 0.0	 1	    1.03045	  -34.24227	 13.8	 1	    1.10000	    0.90000;
	77	 2	 0.0	 0.0	 0.0	 0.0	 1	    1.04000	  -33.90968	 13.8	 1	    1.10000	    0.90000;
	78	 2	 0.0	 0.0	 0.0	 0.0	 1	    1.01451	  -34.71511	 13.8	 1	    1.10000	    0.90000;
	79	 2	 0.0	 0.0	 0.0	 0.0	 1	    1.01451	  -34.71511	 13.8	 1	    1.10000	    0.90000;
	80	 1	 2.38	 0.68	 0.0	 0.0	 1	    1.01762	  -40.50779	 115.0	 1	    1.10000	    0.90000;
	81	 1	 0.0	 0.0	 0.0	 0.0	 1	    1.01981	  -36.31889	 230.0	 1	    1.10000	    0.90000;
	82	 1	 11.96	 3.41	 0.0	 0.0	 1	    1.01490	  -37.61124	 115.0	 1	    1.10000	    0.90000;
	83	 1	 4.29	 1.22	 0.0	 0.0	 1	    1.01216	  -38.23565	 115.0	 1	    1.10000	    0.90000;
	84	 1	 5.56	 1.59	 0.0	 0.0	 1	    0.99744	  -38.57643	 115.0	 1	    1.10000	    0.90000;
	85	 1	 7.74	 2.21	 0.0	 0.0	 1	    0.99859	  -39.87647	 115.0	 1	    1.10000	    0.90000;
	86	 1	 12.23	 3.49	 0.0	 0.0	 1	    0.99148	  -37.33722	 115.0	 1	    1.10000	    0.90000;
	87	 1	 0.0	 0.0	 0.0	 0.0	 1	    1.02393	  -34.42578	 230.0	 1	    1.10000	    0.90000;
	88	 1	 79.66	 22.7	 0.0	 0.0	 1	    1.01792	  -36.54832	 115.0	 1	    1.10000	    0.90000;
	89	 1	 86.04	 24.52	 0.0	 0.0	 1	    1.01534	  -38.73098	 115.0	 1	    1.10000	    0.90000;
	90	 2	 0.0	 0.0	 0.0	 0.0	 1	    1.04005	  -37.57943	 13.8	 1	    1.10000	    0.90000;
	91	 2	 0.0	 0.0	 0.0	 0.0	 1	    1.02816	  -38.35097	 13.8	 1	    1.10000	    0.90000;
	92	 2	 0.0	 0.0	 0.0	 0.0	 1	    1.01534	  -38.73098	 13.8	 1	    1.10000	    0.90000;
	93	 1	 4.91	 1.4	 0.0	 0.0	 1	    1.03387	  -36.46476	 115.0	 1	    1.10000	    0.90000;
	94	 2	 0.0	 0.0	 0.0	 0.0	 1	    1.04000	  -33.78375	 13.8	 1	    1.10000	    0.90000;
	95	 1	 4.11	 1.17	 0.0	 30.0	 1	    1.02323	  -39.22667	 115.0	 1	    1.10000	    0.90000;
	96	 1	 4.05	 1.15	 0.0	 0.0	 1	    1.02140	  -36.53853	 115.0	 1	    1.10000	    0.90000;
	97	 1	 10.87	 3.1	 0.0	 0.0	 1	    1.00719	  -36.74557	 115.0	 1	    1.10000	    0.90000;
	98	 1	 0.0	 0.0	 0.0	 0.0	 1	    1.01137	  -33.81272	 230.0	 1	    1.10000	    0.90000;
	99	 1	 18.04	 5.14	 0.0	 0.0	 1	    1.00426	  -35.25172	 115.0	 1	    1.10000	    0.90000;
	100	 1	 60.35	 17.2	 0.0	 80.0	 1	    1.02480	  -41.24492	 115.0	 1	    1.10000	    0.90000;
	101	 1	 0.77	 0.22	 0.0	 0.0	 1	    0.99300	  -37.22684	 115.0	 1	    1.10000	    0.90000;
	102	 1	 0.0	 0.0	 0.0	 0.0	 1	    1.02643	  -34.19675	 230.0	 1	    1.10000	    0.90000;
	103	 1	 0.0	 0.0	 0.0	 0.0	 1	    1.02280	  -34.94220	 115.0	 1	    1.10000	    0.90000;
	104	 2	 0.0	 0.0	 0.0	 0.0	 1	    1.04000	  -31.76489	 13.8	 1	    1.10000	    0.90000;
	105	 2	 0.0	 0.0	 0.0	 0.0	 1	    1.04000	  -32.19952	 13.8	 1	    1.10000	    0.90000;
	106	 1	 2.82	 0.8	 0.0	 0.0	 1	    1.01832	  -35.53276	 115.0	 1	    1.10000	    0.90000;
	107	 1	 71.96	 20.51	 0.0	 0.0	 1	    0.99378	  -39.40192	 115.0	 1	    1.10000	    0.90000;
	108	 1	 13.97	 3.98	 0.0	 0.0	 1	    1.00945	  -35.49799	 115.0	 1	    1.10000	    0.90000;
	109	 1	 8.26	 2.35	 0.0	 0.0	 1	    1.00533	  -38.27613	 115.0	 1	    1.10000	    0.90000;
	110	 1	 16.1	 4.59	 0.0	 0.0	 1	    0.99314	  -37.18693	 115.0	 1	    1.10000	    0.90000;
	111	 1	 14.23	 4.05	 0.0	 0.0	 1	    1.01029	  -42.06308	 115.0	 1	    1.10000	    0.90000;
	112	 1	 0.0	 0.0	 0.0	 0.0	 1	    1.02093	  -34.87940	 230.0	 1	    1.10000	    0.90000;
	113	 1	 0.0	 0.0	 0.0	 0.0	 1	    1.00087	  -38.39010	 115.0	 1	    1.10000	    0.90000;
	114	 2	 0.0	 0.0	 0.0	 0.0	 1	    1.02308	  -34.63412	 13.8	 1	    1.10000	    0.90000;
	115	 2	 0.0	 0.0	 0.0	 0.0	 1	    1.04000	  -32.35594	 13.8	 1	    1.10000	    0.90000;
	116	 1	 0.0	 0.0	 0.0	 0.0	 1	    1.01043	  -34.16837	 230.0	 1	    1.10000	    0.90000;
	117	 1	 50.54	 14.4	 0.0	 0.0	 1	    0.99920	  -36.64395	 115.0	 1	    1.10000	    0.90000;
	118	 1	 5.84	 1.66	 0.0	 0.0	 1	    1.00337	  -35.97215	 115.0	 1	    1.10000	    0.90000;
	119	 1	 26.03	 7.42	 0.0	 0.0	 1	    0.98960	  -38.88685	 115.0	 1	    1.10000	    0.90000;
	120	 1	 2.88	 0.82	 0.0	 0.0	 1	    0.99961	  -39.62756	 115.0	 1	    1.10000	    0.90000;
	121	 1	 0.0	 0.0	 0.0	 0.0	 1	    1.03248	  -32.77223	 230.0	 1	    1.10000	    0.90000;
	122	 1	 21.14	 6.02	 0.0	 0.0	 1	    1.02627	  -34.80470	 115.0	 1	    1.10000	    0.90000;
	123	 1	 0.0	 0.0	 0.0	 0.0	 1	    1.02219	  -32.29972	 230.0	 1	    1.10000	    0.90000;
	124	 1	 0.0	 0.0	 0.0	 0.0	 1	    1.00829	  -34.98602	 115.0	 1	    1.10000	    0.90000;
	125	 2	 0.0	 0.0	 0.0	 0.0	 1	    1.04000	  -25.00025	 13.8	 1	    1.10000	    0.90000;
	126	 2	 0.0	 0.0	 0.0	 0.0	 1	    1.04000	  -27.68987	 13.8	 1	    1.10000	    0.90000;
	127	 2	 0.0	 0.0	 0.0	 0.0	 1	    1.04000	  -30.10848	 13.8	 1	    1.10000	    0.90000;
	128	 1	 0.0	 0.0	 0.0	 0.0	 1	    1.02039	  -34.83526	 230.0	 1	    1.10000	    0.90000;
	129	 1	 105.76	 30.14	 0.0	 0.0	 1	    0.99943	  -38.54699	 115.0	 1	    1.10000	    0.90000;
	130	 1	 6.02	 1.72	 0.0	 0.0	 1	    1.01457	  -35.98412	 115.0	 1	    1.10000	    0.90000;
	131	 1	 44.86	 12.79	 0.0	 0.0	 1	    0.99407	  -37.05827	 115.0	 1	    1.10000	    0.90000;
	132	 1	 39.98	 11.39	 0.0	 0.0	 1	    0.99009	  -38.56386	 115.0	 1	    1.10000	    0.90000;
	133	 1	 0.0	 0.0	 0.0	 0.0	 1	    1.02424	  -32.30636	 230.0	 1	    1.10000	    0.90000;
	134	 1	 0.0	 0.0	 0.0	 0.0	 1	    1.01956	  -33.76934	 115.0	 1	    1.10000	    0.90000;
	135	 2	 0.0	 0.0	 0.0	 0.0	 1	    1.04000	  -28.40842	 13.8	 1	    1.10000	    0.90000;
	136	 2	 0.0	 0.0	 0.0	 0.0	 1	    1.04000	  -29.41636	 13.8	 1	    1.10000	    0.90000;
	137	 1	 1.86	 0.53	 0.0	 0.0	 1	    1.01376	  -37.62752	 115.0	 1	    1.10000	    0.90000;
	138	 1	 3.29	 0.94	 0.0	 0.0	 1	    1.00781	  -38.57975	 115.0	 1	    1.10000	    0.90000;
	139	 1	 10.14	 2.89	 0.0	 0.0	 1	    0.99467	  -39.37681	 115.0	 1	    1.10000	    0.90000;
	140	 1	 12.18	 3.47	 0.0	 0.0	 1	    1.00632	  -35.35143	 115.0	 1	    1.10000	    0.90000;
	141	 1	 2.11	 0.6	 0.0	 0.0	 1	    0.99307	  -37.18307	 115.0	 1	    1.10000	    0.90000;
	142	 1	 55.26	 15.75	 0.0	 0.0	 1	    0.99145	  -37.19405	 115.0	 1	    1.10000	    0.90000;
	143	 1	 43.22	 12.32	 0.0	 0.0	 1	    1.00890	  -39.57792	 115.0	 1	    1.10000	    0.90000;
	144	 1	 13.43	 3.83	 0.0	 0.0	 1	    1.00377	  -36.96433	 115.0	 1	    1.10000	    0.90000;
	145	 1	 28.32	 8.07	 0.0	 0.0	 1	    1.00937	  -37.69437	 115.0	 1	    1.10000	    0.90000;
	146	 1	 0.0	 0.0	 0.0	 0.0	 1	    1.01696	  -38.02110	 115.0	 1	    1.10000	    0.90000;
	147	 2	 0.0	 0.0	 0.0	 0.0	 1	    1.03816	  -35.72897	 13.8	 1	    1.10000	    0.90000;
	148	 1	 47.49	 13.53	 0.0	 0.0	 1	    0.98497	  -38.23900	 115.0	 1	    1.10000	    0.90000;
	149	 1	 0.0	 0.0	 0.0	 0.0	 1	    1.02764	  -33.72552	 230.0	 1	    1.10000	    0.90000;
	150	 1	 0.0	 0.0	 0.0	 0.0	 1	    1.02337	  -35.73901	 115.0	 1	    1.10000	    0.90000;
	151	 2	 0.0	 0.0	 0.0	 0.0	 1	    1.04000	  -31.93798	 13.8	 1	    1.10000	    0.90000;
	152	 2	 0.0	 0.0	 0.0	 0.0	 1	    1.04000	  -27.86533	 13.8	 1	    1.10000	    0.90000;
	153	 2	 0.0	 0.0	 0.0	 0.0	 1	    1.04000	  -26.08960	 13.8	 1	    1.10000	    0.90000;
	154	 2	 0.0	 0.0	 0.0	 0.0	 1	    1.04000	  -29.47811	 13.8	 1	    1.10000	    0.90000;
	155	 2	 0.0	 0.0	 0.0	 0.0	 1	    1.04000	  -29.60732	 13.8	 1	    1.10000	    0.90000;
	156	 1	 0.0	 0.0	 0.0	 0.0	 1	    1.02233	  -32.42728	 230.0	 1	    1.10000	    0.90000;
	157	 1	 21.88	 6.24	 0.0	 0.0	 1	    1.01877	  -33.57402	 115.0	 1	    1.10000	    0.90000;
	158	 1	 14.36	 4.09	 0.0	 0.0	 1	    1.03469	  -35.21370	 115.0	 1	    1.10000	    0.90000;
	159	 1	 2.22	 0.63	 0.0	 0.0	 1	    1.00198	  -39.51613	 115.0	 1	    1.10000	    0.90000;
	160	 1	 0.0	 0.0	 0.0	 0.0	 1	    1.00817	  -38.72381	 115.0	 1	    1.10000	    0.90000;
	161	 2	 0.0	 0.0	 0.0	 0.0	 1	    1.00817	  -38.72381	 13.8	 1	    1.10000	    0.90000;
	162	 1	 2.15	 0.61	 0.0	 0.0	 1	    1.00246	  -36.90651	 115.0	 1	    1.10000	    0.90000;
	163	 1	 73.93	 21.07	 0.0	 0.0	 1	    1.01235	  -41.84320	 115.0	 1	    1.10000	    0.90000;
	164	 2	 0.0	 0.0	 0.0	 0.0	 1	    1.01235	  -41.84320	 13.8	 1	    1.10000	    0.90000;
	165	 2	 0.0	 0.0	 0.0	 0.0	 1	    1.01235	  -41.84320	 13.8	 1	    1.10000	    0.90000;
	166	 2	 0.0	 0.0	 0.0	 0.0	 1	    1.01235	  -41.84320	 13.8	 1	    1.10000	    0.90000;
	167	 2	 0.0	 0.0	 0.0	 0.0	 1	    1.02182	  -41.56401	 13.8	 1	    1.10000	    0.90000;
	168	 2	 0.0	 0.0	 0.0	 0.0	 1	    1.01235	  -41.84320	 13.8	 1	    1.10000	    0.90000;
	169	 2	 0.0	 0.0	 0.0	 0.0	 1	    1.01235	  -41.84320	 13.8	 1	    1.10000	    0.90000;
	170	 2	 0.0	 0.0	 0.0	 0.0	 1	    1.03015	  -41.30534	 13.8	 1	    1.10000	    0.90000;
	171	 1	 12.49	 3.56	 0.0	 0.0	 1	    1.00609	  -39.65625	 115.0	 1	    1.10000	    0.90000;
	172	 1	 8.68	 2.47	 0.0	 0.0	 1	    1.01889	  -40.98400	 115.0	 1	    1.10000	    0.90000;
	173	 1	 14.06	 4.01	 0.0	 0.0	 1	    1.01191	  -41.57088	 115.0	 1	    1.10000	    0.90000;
	174	 1	 4.47	 1.27	 0.0	 0.0	 1	    1.02044	  -40.06550	 115.0	 1	    1.10000	    0.90000;
	175	 1	 11.8	 3.36	 0.0	 0.0	 1	    1.00993	  -41.99447	 115.0	 1	    1.10000	    0.90000;
	176	 1	 30.69	 8.75	 0.0	 0.0	 1	    1.01312	  -37.17094	 115.0	 1	    1.10000	    0.90000;
	177	 1	 15.45	 4.4	 0.0	 0.0	 1	    1.00731	  -39.25077	 115.0	 1	    1.10000	    0.90000;
	178	 1	 0.0	 0.0	 0.0	 0.0	 1	    1.01957	  -37.08936	 230.0	 1	    1.10000	    0.90000;
	179	 1	 38.1	 10.86	 0.0	 0.0	 1	    1.01838	  -40.15256	 115.0	 1	    1.10000	    0.90000;
	180	 1	 12.5	 3.56	 0.0	 0.0	 1	    1.01848	  -40.98553	 115.0	 1	    1.10000	    0.90000;
	181	 1	 76.87	 21.91	 0.0	 0.0	 1	    1.01188	  -38.23089	 115.0	 1	    1.10000	    0.90000;
	182	 2	 0.0	 0.0	 0.0	 0.0	 1	    1.03598	  -35.43091	 13.8	 1	    1.10000	    0.90000;
	183	 2	 0.0	 0.0	 0.0	 0.0	 1	    1.02647	  -36.58583	 13.8	 1	    1.10000	    0.90000;
	184	 1	 17.26	 4.92	 0.0	 0.0	 1	    1.02234	  -39.87460	 115.0	 1	    1.10000	    0.90000;
	185	 1	 17.42	 4.96	 0.0	 0.0	 1	    1.01301	  -37.19603	 115.0	 1	    1.10000	    0.90000;
	186	 1	 3.12	 0.89	 0.0	 0.0	 1	    1.01082	  -37.23259	 115.0	 1	    1.10000	    0.90000;
	187	 1	 0.0	 0.0	 0.0	 0.0	 1	    1.03501	  -31.77741	 230.0	 1	    1.10000	    0.90000;
	188	 1	 0.0	 0.0	 0.0	 0.0	 1	    1.02610	  -35.97214	 115.0	 1	    1.10000	    0.90000;
	189	 3	 0.0	 0.0	 0.0	 0.0	 1	    1.04000	  -29.41835	 13.8	 1	    1.10000	    0.90000;
	190	 1	 26.41	 7.53	 0.0	 0.0	 1	    1.00459	  -40.38272	 115.0	 1	    1.10000	    0.90000;
	191	 1	 11.67	 3.32	 0.0	 0.0	 1	    1.02447	  -38.93121	 115.0	 1	    1.10000	    0.90000;
	192	 1	 72.21	 20.58	 0.0	 0.0	 1	    0.99365	  -39.56412	 115.0	 1	    1.10000	    0.90000;
	193	 1	 32.61	 9.29	 0.0	 0.0	 1	    0.99490	  -36.91774	 115.0	 1	    1.10000	    0.90000;
	194	 1	 60.67	 17.29	 0.0	 50.0	 1	    1.02039	  -37.04179	 115.0	 1	    1.10000	    0.90000;
	195	 1	 0.0	 0.0	 0.0	 0.0	 1	    1.01158	  -38.23251	 115.0	 1	    1.10000	    0.90000;
	196	 2	 0.0	 0.0	 0.0	 0.0	 1	    1.01158	  -38.23251	 13.8	 1	    1.10000	    0.90000;
	197	 2	 0.0	 0.0	 0.0	 0.0	 1	    1.01158	  -38.23251	 13.8	 1	    1.10000	    0.90000;
	198	 1	 7.97	 2.27	 0.0	 0.0	 1	    1.00447	  -36.04243	 115.0	 1	    1.10000	    0.90000;
	199	 1	 6.69	 1.91	 0.0	 0.0	 1	    1.02167	  -40.24203	 115.0	 1	    1.10000	    0.90000;
	200	 1	 14.97	 4.27	 0.0	 0.0	 1	    1.00371	  -37.92433	 115.0	 1	    1.10000	    0.90000;
];

%% generator data
%	bus	Pg	Qg	Qmax	Qmin	Vg	mBase	status	Pmax	Pmin	Pc1	Pc2	Qc1min	Qc1max	Qc2min	Qc2max	ramp_agc	ramp_10	ramp_30	ramp_q	apf
mpc.gen = [
	49	 2060.0	 105.55	 2.11	 -0.55	 1.04	 5.44	 1	 4.53	 1.36	 0.0	 0.0	 0.0	 0.0	 0.0	 0.0	 0.0	 0.0	 0.0	 0.0	 0.0;
	50	 714.0	 12.798	 2.11	 -0.55	 1.04	 5.44	 1	 4.53	 1.36	 0.0	 0.0	 0.0	 0.0	 0.0	 0.0	 0.0	 0.0	 0.0	 0.0	 0.0;
	51	 0.0	 -179.106	 2.11	 -0.55	 1.04	 5.44	 1	 4.53	 1.36	 0.0	 0.0	 0.0	 0.0	 0.0	 0.0	 0.0	 0.0	 0.0	 0.0	 0.0;
	52	 1835.0	 -28.829	 2.11	 -0.55	 1.04	 5.44	 1	 4.53	 1.36	 0.0	 0.0	 0.0	 0.0	 0.0	 0.0	 0.0	 0.0	 0.0	 0.0	 0.0;
	53	 1400.0	 -16.77	 4.23	 -1.11	 1.04	 10.88	 1	 9.07	 2.72	 0.0	 0.0	 0.0	 0.0	 0.0	 0.0	 0.0	 0.0	 0.0	 0.0	 0.0;
	65	 615.0	 35.912	 32.04	 -21.66	 1.04	 180.48	 1	 150.4	 45.12	 0.0	 0.0	 0.0	 0.0	 0.0	 0.0	 0.0	 0.0	 0.0	 0.0	 0.0;
	67	 3830.8	 1014.156	 2.19	 -0.57	 1.04	 5.64	 1	 4.7	 1.41	 0.0	 0.0	 0.0	 0.0	 0.0	 0.0	 0.0	 0.0	 0.0	 0.0	 0.0;
	68	 240.0	 5.515	 13.01	 -3.41	 1.04	 33.5	 1	 27.92	 8.38	 0.0	 0.0	 0.0	 0.0	 0.0	 0.0	 0.0	 0.0	 0.0	 0.0	 0.0;
	69	 2415.0	 -615.575	 13.01	 -3.41	 1.04	 33.5	 1	 27.92	 8.38	 0.0	 0.0	 0.0	 0.0	 0.0	 0.0	 0.0	 0.0	 0.0	 0.0	 0.0;
	70	 495.998	 -201.569	 13.01	 -3.41	 1.04	 33.5	 1	 27.92	 8.38	 0.0	 0.0	 0.0	 0.0	 0.0	 0.0	 0.0	 0.0	 0.0	 0.0	 0.0;
	71	 1682.0	 -22.693	 13.01	 -3.41	 1.04	 33.5	 1	 27.92	 8.38	 0.0	 0.0	 0.0	 0.0	 0.0	 0.0	 0.0	 0.0	 0.0	 0.0	 0.0;
	72	 2438.0	 -47.638	 13.01	 -3.41	 1.04	 33.5	 1	 27.92	 8.38	 0.0	 0.0	 0.0	 0.0	 0.0	 0.0	 0.0	 0.0	 0.0	 0.0	 0.0;
	73	 605.0	 19.863	 13.01	 -3.41	 1.04	 33.5	 1	 27.92	 8.38	 0.0	 0.0	 0.0	 0.0	 0.0	 0.0	 0.0	 0.0	 0.0	 0.0	 0.0;
	76	 5491.0	 1281.557	 2.04	 -0.44	 1.04	 4.8	 1	 4.0	 1.2	 0.0	 0.0	 0.0	 0.0	 0.0	 0.0	 0.0	 0.0	 0.0	 0.0	 0.0;
	77	 0.0	 0.314	 1.22	 -0.27	 1.04	 2.88	 1	 2.4	 0.72	 0.0	 0.0	 0.0	 0.0	 0.0	 0.0	 0.0	 0.0	 0.0	 0.0	 0.0;
	78	 2988.47	 134.905	 9.16	 -2.0	 1.04	 21.6	 0	 18.0	 5.4	 0.0	 0.0	 0.0	 0.0	 0.0	 0.0	 0.0	 0.0	 0.0	 0.0	 0.0;
	79	 4113.0	 45.108	 9.16	 -2.0	 1.04	 21.6	 0	 18.0	 5.4	 0.0	 0.0	 0.0	 0.0	 0.0	 0.0	 0.0	 0.0	 0.0	 0.0	 0.0;
	90	 0.0	 0.002	 1.63	 -0.36	 1.04	 3.84	 1	 3.2	 0.96	 0.0	 0.0	 0.0	 0.0	 0.0	 0.0	 0.0	 0.0	 0.0	 0.0	 0.0;
	91	 2140.0	 460.248	 2.55	 -0.55	 1.04	 6.0	 1	 5.0	 1.5	 0.0	 0.0	 0.0	 0.0	 0.0	 0.0	 0.0	 0.0	 0.0	 0.0	 0.0;
	92	 699.0	 58.724	 3.21	 -0.7	 1.04	 7.56	 0	 6.3	 1.89	 0.0	 0.0	 0.0	 0.0	 0.0	 0.0	 0.0	 0.0	 0.0	 0.0	 0.0;
	94	 400.0	 -3.937	 8.39	 -2.2	 1.04	 21.6	 1	 18.0	 5.4	 0.0	 0.0	 0.0	 0.0	 0.0	 0.0	 0.0	 0.0	 0.0	 0.0	 0.0;
	104	 507.0	 -6.348	 21.09	 -14.26	 1.04	 118.8	 1	 99.0	 29.7	 0.0	 0.0	 0.0	 0.0	 0.0	 0.0	 0.0	 0.0	 0.0	 0.0	 0.0;
	105	 0.0	 -6.15	 42.17	 -28.51	 1.04	 237.6	 1	 198.0	 59.4	 0.0	 0.0	 0.0	 0.0	 0.0	 0.0	 0.0	 0.0	 0.0	 0.0	 0.0;
	114	 172.0	 -0.728	 0.36	 -0.24	 1.04	 2.04	 1	 1.7	 0.51	 0.0	 0.0	 0.0	 0.0	 0.0	 0.0	 0.0	 0.0	 0.0	 0.0	 0.0;
	115	 706.0	 100.138	 31.95	 -21.6	 1.04	 180.0	 1	 150.0	 45.0	 0.0	 0.0	 0.0	 0.0	 0.0	 0.0	 0.0	 0.0	 0.0	 0.0	 0.0;
	125	 1253.0	 240.069	 60.6	 -15.87	 1.04	 156.06	 1	 130.05	 39.02	 0.0	 0.0	 0.0	 0.0	 0.0	 0.0	 0.0	 0.0	 0.0	 0.0	 0.0;
	126	 187.377	 30.725	 60.6	 -15.87	 1.04	 156.06	 1	 130.05	 39.02	 0.0	 0.0	 0.0	 0.0	 0.0	 0.0	 0.0	 0.0	 0.0	 0.0	 0.0;
	127	 1118.0	 -4.615	 60.6	 -15.87	 1.04	 156.06	 1	 130.05	 39.02	 0.0	 0.0	 0.0	 0.0	 0.0	 0.0	 0.0	 0.0	 0.0	 0.0	 0.0;
	135	 1563.0	 89.05	 208.02	 -54.46	 1.04	 535.68	 1	 446.4	 133.92	 0.0	 0.0	 0.0	 0.0	 0.0	 0.0	 0.0	 0.0	 0.0	 0.0	 0.0;
	136	 0.0	 54.854	 208.02	 -54.46	 1.04	 535.68	 1	 446.4	 133.92	 0.0	 0.0	 0.0	 0.0	 0.0	 0.0	 0.0	 0.0	 0.0	 0.0	 0.0;
	147	 0.0	 254.252	 21.41	 -14.47	 1.04	 120.6	 1	 100.5	 30.15	 0.0	 0.0	 0.0	 0.0	 0.0	 0.0	 0.0	 0.0	 0.0	 0.0	 0.0;
	151	 0.0	 20.05	 2.52	 -0.66	 1.04	 6.48	 1	 5.4	 1.62	 0.0	 0.0	 0.0	 0.0	 0.0	 0.0	 0.0	 0.0	 0.0	 0.0	 0.0;
	152	 0.0	 105.683	 35.99	 -9.42	 1.04	 92.67	 1	 77.22	 23.17	 0.0	 0.0	 0.0	 0.0	 0.0	 0.0	 0.0	 0.0	 0.0	 0.0	 0.0;
	153	 1273.0	 -38.623	 35.99	 -9.42	 1.04	 92.67	 1	 77.22	 23.17	 0.0	 0.0	 0.0	 0.0	 0.0	 0.0	 0.0	 0.0	 0.0	 0.0	 0.0;
	154	 3967.0	 69.804	 35.99	 -9.42	 1.04	 92.67	 1	 77.22	 23.17	 0.0	 0.0	 0.0	 0.0	 0.0	 0.0	 0.0	 0.0	 0.0	 0.0	 0.0;
	155	 0.0	 0.25	 35.99	 -9.42	 1.04	 92.67	 1	 77.22	 23.17	 0.0	 0.0	 0.0	 0.0	 0.0	 0.0	 0.0	 0.0	 0.0	 0.0	 0.0;
	161	 2232.0	 71.678	 70.55	 -15.38	 1.04	 166.32	 0	 138.6	 41.58	 0.0	 0.0	 0.0	 0.0	 0.0	 0.0	 0.0	 0.0	 0.0	 0.0	 0.0;
	164	 2692.0	 716.456	 6.11	 -1.33	 1.04	 14.4	 0	 12.0	 3.6	 0.0	 0.0	 0.0	 0.0	 0.0	 0.0	 0.0	 0.0	 0.0	 0.0	 0.0;
	165	 318.0	 15.391	 13.23	 -2.89	 1.04	 31.2	 0	 26.0	 7.8	 0.0	 0.0	 0.0	 0.0	 0.0	 0.0	 0.0	 0.0	 0.0	 0.0	 0.0;
	166	 1900.0	 179.845	 4.78	 -1.04	 1.04	 11.28	 0	 9.4	 2.82	 0.0	 0.0	 0.0	 0.0	 0.0	 0.0	 0.0	 0.0	 0.0	 0.0	 0.0;
	167	 0.0	 63.236	 4.78	 -1.04	 1.04	 11.28	 1	 9.4	 2.82	 0.0	 0.0	 0.0	 0.0	 0.0	 0.0	 0.0	 0.0	 0.0	 0.0	 0.0;
	168	 -365.801	 29.029	 4.78	 -1.04	 1.04	 11.28	 0	 9.4	 2.82	 0.0	 0.0	 0.0	 0.0	 0.0	 0.0	 0.0	 0.0	 0.0	 0.0	 0.0;
	169	 0.0	 42.0	 4.78	 -1.04	 1.04	 11.28	 0	 9.4	 2.82	 0.0	 0.0	 0.0	 0.0	 0.0	 0.0	 0.0	 0.0	 0.0	 0.0	 0.0;
	170	 0.0	 500.0	 4.78	 -1.04	 1.04	 11.28	 1	 9.4	 2.82	 0.0	 0.0	 0.0	 0.0	 0.0	 0.0	 0.0	 0.0	 0.0	 0.0	 0.0;
	182	 369.0	 64.538	 8.16	 -2.14	 1.04	 21.0	 1	 17.5	 5.25	 0.0	 0.0	 0.0	 0.0	 0.0	 0.0	 0.0	 0.0	 0.0	 0.0	 0.0;
	183	 0.0	 15.842	 12.4	 -3.25	 1.04	 31.92	 1	 26.6	 7.98	 0.0	 0.0	 0.0	 0.0	 0.0	 0.0	 0.0	 0.0	 0.0	 0.0	 0.0;
	189	 121.0	 16.239	 209.45	 -46.67	 1.04	 682.98	 1	 569.15	 170.75	 0.0	 0.0	 0.0	 0.0	 0.0	 0.0	 0.0	 0.0	 0.0	 0.0	 0.0;
	196	 2628.0	 531.748	 34.36	 -7.49	 1.04	 81.0	 0	 67.5	 20.25	 0.0	 0.0	 0.0	 0.0	 0.0	 0.0	 0.0	 0.0	 0.0	 0.0	 0.0;
	197	 707.0	 121.39	 34.36	 -7.49	 1.04	 81.0	 0	 67.5	 20.25	 0.0	 0.0	 0.0	 0.0	 0.0	 0.0	 0.0	 0.0	 0.0	 0.0	 0.0;
];

%% generator cost data
%	2	startup	shutdown	n	c(n-1)	...	c0
mpc.gencost = [
	2	 0.0	 0.0	 3	   0.002000	  19.000000	 236.120000;
	2	 0.0	 0.0	 3	   0.002000	  19.000000	 236.120000;
	2	 0.0	 0.0	 3	   0.002000	  19.000000	 236.120000;
	2	 0.0	 0.0	 3	   0.002000	  19.000000	 236.120000;
	2	 0.0	 0.0	 3	   0.002000	  19.000000	 236.240000;
	2	 0.0	 0.0	 3	   0.000000	   0.000000	   0.000000;
	2	 0.0	 0.0	 3	   0.002000	  19.000000	 236.130000;
	2	 0.0	 0.0	 3	   0.002000	  19.000000	 236.740000;
	2	 0.0	 0.0	 3	   0.002000	  19.000000	 236.740000;
	2	 0.0	 0.0	 3	   0.002000	  19.000000	 236.740000;
	2	 0.0	 0.0	 3	   0.002000	  19.000000	 236.740000;
	2	 0.0	 0.0	 3	   0.002000	  19.000000	 236.740000;
	2	 0.0	 0.0	 3	   0.002000	  19.000000	 236.740000;
	2	 0.0	 0.0	 3	   0.002000	  23.157000	 606.000000;
	2	 0.0	 0.0	 3	   0.002000	  23.146000	 603.600000;
	2	 0.0	 0.0	 3	   0.002000	  23.252000	 627.000000;
	2	 0.0	 0.0	 3	   0.002000	  23.252000	 627.000000;
	2	 0.0	 0.0	 3	   0.002000	  23.152000	 604.800000;
	2	 0.0	 0.0	 3	   0.002000	  23.164000	 607.500000;
	2	 0.0	 0.0	 3	   0.002000	  23.173000	 609.450000;
	2	 0.0	 0.0	 3	   0.002000	  19.000000	 236.480000;
	2	 0.0	 0.0	 3	   0.000000	   0.000000	   0.000000;
	2	 0.0	 0.0	 3	   0.000000	   0.000000	   0.000000;
	2	 0.0	 0.0	 3	   0.000000	   0.000000	   0.000000;
	2	 0.0	 0.0	 3	   0.000000	   0.000000	   0.000000;
	2	 0.0	 0.0	 3	   0.002000	  19.000000	 610.140000;
	2	 0.0	 0.0	 3	   0.002000	  19.000000	 610.140000;
	2	 0.0	 0.0	 3	   0.002000	  19.000000	 610.140000;
	2	 0.0	 0.0	 3	   0.002000	  19.000000	 1261.330000;
	2	 0.0	 0.0	 3	   0.002000	  19.000000	 1261.330000;
	2	 0.0	 0.0	 3	   0.000000	   0.000000	   0.000000;
	2	 0.0	 0.0	 3	   0.002000	  19.000000	 236.140000;
	2	 0.0	 0.0	 3	   0.002000	  19.000000	 253.010000;
	2	 0.0	 0.0	 3	   0.002000	  19.000000	 253.010000;
	2	 0.0	 0.0	 3	   0.002000	  19.000000	 253.010000;
	2	 0.0	 0.0	 3	   0.002000	  19.000000	 253.010000;
	2	 0.0	 0.0	 3	   0.002000	  24.070000	 807.900000;
	2	 0.0	 0.0	 3	   0.002000	  23.211000	 618.000000;
	2	 0.0	 0.0	 3	   0.002000	  23.306000	 639.000000;
	2	 0.0	 0.0	 3	   0.002000	  23.194000	 614.100000;
	2	 0.0	 0.0	 3	   0.002000	  23.194000	 614.100000;
	2	 0.0	 0.0	 3	   0.002000	  23.194000	 614.100000;
	2	 0.0	 0.0	 3	   0.002000	  23.194000	 614.100000;
	2	 0.0	 0.0	 3	   0.002000	  23.194000	 614.100000;
	2	 0.0	 0.0	 3	   0.002000	  19.000000	 236.470000;
	2	 0.0	 0.0	 3	   0.002000	  19.000000	 236.710000;
	2	 0.0	 0.0	 3	   0.000000	   6.710000	 1272.130000;
	2	 0.0	 0.0	 3	   0.002000	  23.588000	 701.250000;
	2	 0.0	 0.0	 3	   0.002000	  23.588000	 701.250000;
];

%% branch data
%	fbus	tbus	r	x	b	rateA	rateB	rateC	ratio	angle	status	angmin	angmax
mpc.branch = [
	2	 1	 0.000673	 0.003339	 0.0	 100.0	 0.0	 0.0	 0.0	 0.0	 1	 -30.0	 30.0;
	1	 119	 0.018542	 0.119758	 0.02285	 221.1	 0.0	 0.0	 0.0	 0.0	 1	 -30.0	 30.0;
	124	 1	 0.005615	 0.036268	 0.00692	 221.1	 0.0	 0.0	 0.0	 0.0	 1	 -30.0	 30.0;
	193	 1	 0.004258	 0.027501	 0.00525	 221.1	 0.0	 0.0	 0.0	 0.0	 1	 -30.0	 30.0;
	4	 3	 0.000573	 0.003303	 0.0	 100.0	 0.0	 0.0	 0.0	 0.0	 1	 -30.0	 30.0;
	57	 3	 0.008505	 0.058098	 0.00988	 221.1	 0.0	 0.0	 0.0	 0.0	 1	 -30.0	 30.0;
	3	 137	 0.005889	 0.038035	 0.00726	 221.1	 0.0	 0.0	 0.0	 0.0	 1	 -30.0	 30.0;
	6	 5	 0.000694	 0.003337	 0.0	 100.0	 0.0	 0.0	 0.0	 0.0	 1	 -30.0	 30.0;
	48	 5	 0.006246	 0.043513	 0.00711	 221.1	 0.0	 0.0	 0.0	 0.0	 1	 -30.0	 30.0;
	5	 64	 0.007877	 0.054875	 0.00897	 221.1	 0.0	 0.0	 0.0	 0.0	 1	 -30.0	 30.0;
	8	 7	 0.000634	 0.003189	 0.0	 100.0	 0.0	 0.0	 0.0	 0.0	 1	 -30.0	 30.0;
	7	 86	 0.003756	 0.024259	 0.00463	 221.1	 0.0	 0.0	 0.0	 0.0	 1	 -30.0	 30.0;
	7	 101	 0.003597	 0.023232	 0.00443	 221.1	 0.0	 0.0	 0.0	 0.0	 1	 -30.0	 30.0;
	7	 148	 0.008667	 0.05598	 0.01068	 221.1	 0.0	 0.0	 0.0	 0.0	 1	 -30.0	 30.0;
	10	 9	 0.000585	 0.003967	 0.0	 100.0	 0.0	 0.0	 0.0	 0.0	 1	 -30.0	 30.0;
	9	 124	 0.008069	 0.055123	 0.00938	 221.1	 0.0	 0.0	 0.0	 0.0	 1	 -30.0	 30.0;