%%%%%%%%%%%%%%%%%%%%%%%%%%%%%%%%%%%%%%%%%%%%%%%%%%%%%%%%%%%%%%%%%%%%%%%%%%%
%%%%                                                                  %%%%%
%%%%    IEEE PES Power Grid Library - Optimal Power Flow - v17.07     %%%%%
%%%%          (https://github.com/power-grid-lib/pglib-opf)           %%%%%
%%%%               Benchmark Group - Typical Operations               %%%%%
%%%%                         26 - June - 2017                         %%%%%
%%%%                                                                  %%%%%
%%%%%%%%%%%%%%%%%%%%%%%%%%%%%%%%%%%%%%%%%%%%%%%%%%%%%%%%%%%%%%%%%%%%%%%%%%%
%
%   Power flow data for Polish system - winter 2007-08 evening peak.
%   Please see CASEFORMAT for details on the case file format.
%
%   This case represents the Polish 400, 220 and 110 kV networks during
%   winter 2007-08 evening peak conditions.
%
%   Copyright (c) 2010 by Roman Korab <roman.korab@polsl.pl>
%   Licensed under the Creative Commons Attribution 4.0
%   International license, http://creativecommons.org/licenses/by/4.0/
%
function mpc = pglib_opf_case3012wp_mp
mpc.version = '2';
mpc.baseMVA = 100.0;

%% area data
%	area	refbus
mpc.areas = [
	1	 1;
];

%% bus data
%	bus_i	type	Pd	Qd	Gs	Bs	area	Vm	Va	baseKV	zone	Vmax	Vmin
mpc.bus = [
	1	 1	 0.0	 0.0	 0.0	 0.0	 1	    1.10687	   -0.30982	 220.0	 1	    1.11000	    0.95000;
	2	 1	 0.0	 0.0	 0.0	 0.0	 1	    1.10785	    1.34583	 220.0	 1	    1.11000	    0.95000;
	3	 1	 0.0	 0.0	 0.0	 0.0	 1	    1.06070	  -28.39229	 220.0	 1	    1.11000	    0.95000;
	4	 1	 0.0	 0.0	 0.0	 0.0	 1	    1.06064	  -28.40188	 220.0	 1	    1.11000	    0.95000;
	5	 1	 0.0	 0.0	 0.0	 0.0	 1	    1.07220	  -31.00649	 220.0	 1	    1.11000	    0.95000;
	6	 1	 0.0	 0.0	 0.0	 0.0	 1	    1.07587	   -5.71952	 220.0	 1	    1.11000	    0.95000;
	7	 1	 0.0	 0.0	 0.0	 0.0	 1	    1.07585	   -5.72098	 220.0	 1	    1.11000	    0.95000;
	8	 1	 0.0	 0.0	 0.0	 0.0	 1	    1.08163	  -17.07274	 220.0	 1	    1.11000	    0.95000;
	9	 1	 0.0	 0.0	 0.0	 0.0	 1	    1.08193	  -17.05468	 220.0	 1	    1.11000	    0.95000;
	10	 1	 0.0	 0.0	 0.0	 0.0	 1	    1.08470	  -20.90907	 220.0	 1	    1.11000	    0.95000;
	11	 1	 0.0	 0.0	 0.0	 0.0	 1	    1.02293	  -12.15501	 400.0	 1	    1.05000	    0.95000;
	12	 1	 0.0	 0.0	 0.0	 0.0	 1	    1.02303	  -12.14544	 400.0	 1	    1.05000	    0.95000;
	13	 1	 0.0	 0.0	 0.0	 0.0	 1	    1.00596	  -16.52978	 400.0	 1	    1.05000	    0.95000;
	14	 1	 0.0	 0.0	 0.0	 0.0	 1	    1.03443	  -16.93619	 220.0	 1	    1.11000	    0.95000;
	15	 1	 0.0	 0.0	 0.0	 0.0	 1	    1.03464	  -16.92890	 220.0	 1	    1.11000	    0.95000;
	16	 1	 0.0	 0.0	 0.0	 0.0	 1	    1.03469	  -16.91611	 220.0	 1	    1.11000	    0.95000;
	17	 1	 0.0	 0.0	 0.0	 0.0	 1	    1.01126	  -21.78270	 220.0	 1	    1.11000	    0.95000;
	18	 1	 0.0	 0.0	 0.0	 0.0	 1	    1.01777	  -21.27292	 220.0	 1	    1.11000	    0.95000;
	19	 1	 0.0	 0.0	 0.0	 0.0	 1	    1.02430	  -10.77350	 400.0	 1	    1.05000	    0.95000;
	20	 1	 0.0	 0.0	 0.0	 0.0	 1	    1.02436	  -10.76384	 400.0	 1	    1.05000	    0.95000;
	21	 1	 0.0	 0.0	 0.0	 0.0	 1	    1.00855	  -20.38237	 400.0	 1	    1.05000	    0.95000;
	22	 1	 0.0	 0.0	 0.0	 0.0	 1	    1.01040	  -16.34178	 400.0	 1	    1.05000	    0.95000;
	23	 1	 0.0	 0.0	 0.0	 0.0	 1	    1.01040	  -16.34178	 400.0	 1	    1.05000	    0.95000;
	24	 2	 10.05	 20.1	 0.0	 0.0	 1	    1.08266	  -22.20934	 220.0	 1	    1.11000	    0.95000;
	25	 2	 10.05	 20.1	 0.0	 0.0	 1	    1.08261	  -22.20484	 220.0	 1	    1.11000	    0.95000;
	26	 1	 0.0	 0.0	 0.0	 0.0	 1	    1.08560	   -4.77130	 220.0	 1	    1.11000	    0.95000;
	27	 1	 0.0	 0.0	 0.0	 0.0	 1	    1.08572	   -4.78378	 220.0	 1	    1.11000	    0.95000;
	28	 1	 0.0	 0.0	 0.0	 0.0	 1	    1.03797	  -18.95661	 220.0	 1	    1.11000	    0.95000;
	29	 1	 0.0	 0.0	 0.0	 0.0	 1	    1.03791	  -18.95461	 220.0	 1	    1.11000	    0.95000;
	30	 1	 0.0	 0.0	 0.0	 0.0	 1	    1.03322	  -16.28731	 220.0	 1	    1.11000	    0.95000;
	31	 1	 0.0	 0.0	 0.0	 0.0	 1	    1.03316	  -16.30226	 220.0	 1	    1.11000	    0.95000;
	32	 1	 0.0	 0.0	 0.0	 0.0	 1	    1.08491	   -2.54002	 220.0	 1	    1.11000	    0.95000;
	33	 1	 0.0	 0.0	 0.0	 0.0	 1	    1.08482	   -2.56291	 220.0	 1	    1.11000	    0.95000;
	34	 1	 0.0	 0.0	 0.0	 0.0	 1	    1.02014	  -14.37736	 400.0	 1	    1.05000	    0.95000;
	35	 1	 0.0	 0.0	 0.0	 0.0	 1	    1.02011	  -14.38223	 400.0	 1	    1.05000	    0.95000;
	36	 1	 0.0	 0.0	 0.0	 0.0	 1	    1.00808	  -17.48949	 400.0	 1	    1.05000	    0.95000;
	37	 3	 48.68	 86.21	 0.0	 0.0	 1	    1.11000	   -0.00000	 220.0	 1	    1.11000	    0.95000;
	38	 2	 54.54	 89.93	 0.0	 0.0	 1	    1.11000	    1.64631	 220.0	 1	    1.11000	    0.95000;
	39	 2	 20.1	 40.19	 0.0	 0.0	 1	    1.11000	    1.64012	 220.0	 1	    1.11000	    0.95000;
	40	 2	 60.29	 120.57	 0.0	 0.0	 1	    1.04800	   -0.07457	 400.0	 1	    1.05000	    0.95000;
	41	 2	 60.29	 120.57	 0.0	 0.0	 1	    1.04796	   -0.06857	 400.0	 1	    1.05000	    0.95000;
	42	 1	 0.0	 0.0	 0.0	 0.0	 1	    1.02517	  -18.26032	 220.0	 1	    1.11000	    0.95000;
	43	 1	 0.0	 0.0	 0.0	 0.0	 1	    1.02506	  -18.26450	 220.0	 1	    1.11000	    0.95000;
	44	 1	 0.0	 0.0	 0.0	 0.0	 1	    1.05000	   -2.03200	 400.0	 1	    1.05000	    0.95000;
	45	 1	 0.0	 0.0	 0.0	 0.0	 1	    1.04998	   -2.03552	 400.0	 1	    1.05000	    0.95000;
	46	 1	 0.0	 0.0	 0.0	 0.0	 1	    1.03040	  -17.30520	 220.0	 1	    1.11000	    0.95000;
	47	 1	 0.0	 0.0	 0.0	 0.0	 1	    1.06072	   -7.87619	 220.0	 1	    1.11000	    0.95000;
	48	 1	 0.0	 0.0	 0.0	 0.0	 1	    1.06074	   -7.89179	 220.0	 1	    1.11000	    0.95000;
	49	 1	 0.0	 0.0	 0.0	 0.0	 1	    1.09578	  -11.02252	 220.0	 2	    1.11000	    0.95000;
	50	 1	 0.0	 0.0	 0.0	 0.0	 1	    1.09289	  -11.71277	 220.0	 2	    1.11000	    0.95000;
	51	 1	 0.0	 0.0	 0.0	 0.0	 1	    1.10535	   -9.99324	 220.0	 2	    1.11000	    0.95000;
	52	 1	 0.0	 0.0	 0.0	 0.0	 1	    1.10532	   -9.99860	 220.0	 2	    1.11000	    0.95000;
	53	 1	 0.0	 0.0	 0.0	 0.0	 1	    1.07351	  -13.21161	 220.0	 2	    1.11000	    0.95000;
	54	 1	 3.23	 1.0	 0.0	 0.0	 1	    1.09935	   -8.70709	 220.0	 2	    1.11000	    0.95000;
	55	 1	 0.0	 0.0	 0.0	 0.0	 1	    1.09941	   -8.70909	 220.0	 2	    1.11000	    0.95000;
	56	 1	 0.0	 0.0	 0.0	 0.0	 1	    1.03590	   -8.89168	 400.0	 2	    1.05000	    0.95000;
	57	 2	 26.12	 60.29	 0.0	 0.0	 1	    1.10991	   -8.02149	 220.0	 2	    1.11000	    0.95000;
	58	 2	 54.26	 120.57	 0.0	 0.0	 1	    1.10981	   -8.02758	 220.0	 2	    1.11000	    0.95000;
	59	 2	 13.06	 30.14	 0.0	 0.0	 1	    1.11000	   -8.02612	 220.0	 2	    1.11000	    0.95000;
	60	 2	 26.12	 50.24	 0.0	 0.0	 1	    1.05000	   -7.16356	 400.0	 2	    1.05000	    0.95000;
	61	 2	 26.12	 50.24	 0.0	 0.0	 1	    1.05000	   -7.15401	 400.0	 2	    1.05000	    0.95000;
	62	 1	 0.0	 0.0	 0.0	 0.0	 1	    1.09384	   -9.43610	 220.0	 2	    1.11000	    0.95000;
	63	 1	 0.0	 0.0	 0.0	 0.0	 1	    1.04493	  -13.05185	 400.0	 2	    1.05000	    0.95000;
	64	 1	 0.0	 0.0	 0.0	 0.0	 1	    1.04493	  -13.05287	 400.0	 2	    1.05000	    0.95000;
	65	 1	 0.0	 0.0	 0.0	 0.0	 1	    1.04779	   -8.75940	 400.0	 2	    1.05000	    0.95000;
	66	 1	 0.0	 0.0	 0.0	 0.0	 1	    1.07996	  -11.49292	 220.0	 2	    1.11000	    0.95000;
	67	 1	 0.0	 0.0	 0.0	 0.0	 1	    1.07995	  -11.48808	 220.0	 2	    1.11000	    0.95000;
	68	 1	 0.0	 0.0	 0.0	 0.0	 1	    1.04566	   -9.07770	 400.0	 2	    1.05000	    0.95000;
	69	 1	 0.0	 0.0	 0.0	 0.0	 1	    1.04565	   -9.08171	 400.0	 2	    1.05000	    0.95000;
	70	 2	 13.06	 30.14	 0.0	 0.0	 1	    1.11000	   -8.86684	 220.0	 2	    1.11000	    0.95000;
	71	 2	 13.06	 30.14	 0.0	 0.0	 1	    1.10993	   -8.86784	 220.0	 2	    1.11000	    0.95000;
	72	 2	 13.06	 30.14	 0.0	 0.0	 1	    1.04319	   -9.12911	 400.0	 2	    1.05000	    0.95000;
	73	 2	 26.12	 60.29	 0.0	 0.0	 1	    1.04322	   -9.12965	 400.0	 2	    1.05000	    0.95000;
	74	 2	 149.71	 60.29	 0.0	 0.0	 1	    1.10484	   -9.34039	 220.0	 2	    1.11000	    0.95000;
	75	 1	 29.14	 10.05	 0.0	 0.0	 1	    1.10482	   -9.34311	 220.0	 2	    1.11000	    0.95000;
	76	 1	 0.0	 0.0	 0.0	 0.0	 1	    1.09625	   -9.66713	 220.0	 2	    1.11000	    0.95000;
	77	 1	 0.0	 0.0	 0.0	 0.0	 1	    1.09625	   -9.66299	 220.0	 2	    1.11000	    0.95000;
	78	 1	 0.0	 0.0	 0.0	 0.0	 1	    1.10232	   -9.61087	 220.0	 2	    1.11000	    0.95000;
	79	 1	 0.0	 0.0	 0.0	 0.0	 1	    1.10234	   -9.61184	 220.0	 2	    1.11000	    0.95000;
	80	 1	 0.0	 0.0	 0.0	 0.0	 1	    1.05000	  -10.63665	 400.0	 2	    1.05000	    0.95000;
	81	 1	 0.0	 0.0	 0.0	 0.0	 1	    1.04997	  -10.64838	 400.0	 2	    1.05000	    0.95000;
	82	 1	 0.0	 0.0	 0.0	 0.0	 1	    1.10150	  -10.77818	 220.0	 2	    1.11000	    0.95000;
	83	 1	 0.0	 0.0	 0.0	 0.0	 1	    1.10233	  -10.64800	 220.0	 2	    1.11000	    0.95000;
	84	 1	 0.0	 0.0	 0.0	 0.0	 1	    1.08120	  -10.34191	 220.0	 2	    1.11000	    0.95000;
	85	 1	 0.0	 0.0	 0.0	 0.0	 1	    1.09186	   -4.01696	 220.0	 3	    1.11000	    0.95000;
	86	 1	 9.35	 0.0	 0.0	 0.0	 1	    1.08539	   -8.58597	 220.0	 3	    1.11000	    0.95000;
	87	 1	 8.18	 0.0	 0.0	 0.0	 1	    1.08541	   -8.58527	 220.0	 3	    1.11000	    0.95000;
	88	 1	 0.0	 0.0	 0.0	 0.0	 1	    1.08658	   -2.84692	 220.0	 3	    1.11000	    0.95000;
	89	 1	 0.0	 0.0	 0.0	 0.0	 1	    1.08671	   -2.83343	 220.0	 3	    1.11000	    0.95000;
	90	 1	 0.0	 0.0	 0.0	 0.0	 1	    1.10862	   -2.58709	 220.0	 3	    1.11000	    0.95000;
	91	 1	 0.0	 0.0	 0.0	 0.0	 1	    1.10862	   -2.58904	 220.0	 3	    1.11000	    0.95000;
	92	 1	 0.0	 0.0	 0.0	 0.0	 1	    1.06362	   -4.29745	 220.0	 3	    1.11000	    0.95000;
	93	 1	 0.0	 0.0	 0.0	 0.0	 1	    1.06335	   -4.30478	 220.0	 3	    1.11000	    0.95000;
	94	 2	 28.13	 70.33	 0.0	 0.0	 1	    1.09678	   -1.96104	 220.0	 3	    1.11000	    0.95000;
	95	 2	 42.2	 103.49	 0.0	 0.0	 1	    1.10029	   -1.46218	 220.0	 3	    1.11000	    0.95000;
	96	 1	 7.72	 -24.99	 0.0	 0.0	 1	    1.08469	   -3.06345	 220.0	 3	    1.11000	    0.95000;
	97	 1	 0.0	 0.0	 0.0	 0.0	 1	    1.08465	   -3.06399	 220.0	 3	    1.11000	    0.95000;
	98	 2	 32.15	 142.68	 0.0	 0.0	 1	    1.05000	   -5.79816	 400.0	 3	    1.05000	    0.95000;
	99	 1	 0.0	 0.0	 0.0	 0.0	 1	    1.04995	   -5.81630	 400.0	 3	    1.05000	    0.95000;
	100	 1	 0.0	 0.0	 0.0	 0.0	 1	    1.06148	   -6.12036	 220.0	 3	    1.11000	    0.95000;
	101	 1	 0.0	 0.0	 0.0	 0.0	 1	    1.10374	   -2.04195	 220.0	 3	    1.11000	    0.95000;
	102	 1	 0.0	 0.0	 0.0	 0.0	 1	    1.10369	   -2.03828	 220.0	 3	    1.11000	    0.95000;
	103	 1	 45.11	 7.94	 0.0	 0.0	 1	    1.09457	   -3.80180	 220.0	 3	    1.11000	    0.95000;
	104	 1	 0.0	 0.0	 0.0	 0.0	 1	    1.09451	   -3.80693	 220.0	 3	    1.11000	    0.95000;
	105	 1	 0.0	 0.0	 0.0	 0.0	 1	    1.09457	   -1.81197	 220.0	 3	    1.11000	    0.95000;
	106	 1	 0.0	 0.0	 0.0	 0.0	 1	    1.09445	   -1.81435	 220.0	 3	    1.11000	    0.95000;
	107	 1	 0.0	 0.0	 0.0	 0.0	 1	    1.09890	   -3.35770	 220.0	 3	    1.11000	    0.95000;
	108	 1	 0.0	 0.0	 0.0	 0.0	 1	    1.09890	   -3.36295	 220.0	 3	    1.11000	    0.95000;
	109	 1	 0.0	 0.0	 0.0	 0.0	 1	    1.04461	   -1.96925	 400.0	 3	    1.05000	    0.95000;
	110	 1	 0.0	 0.0	 0.0	 0.0	 1	    1.04462	   -1.97137	 400.0	 3	    1.05000	    0.95000;
	111	 1	 0.0	 0.0	 0.0	 0.0	 1	    1.09897	   -1.72306	 220.0	 3	    1.11000	    0.95000;
	112	 1	 0.0	 0.0	 0.0	 0.0	 1	    1.09902	   -1.72224	 220.0	 3	    1.11000	    0.95000;
	113	 1	 0.0	 0.0	 0.0	 0.0	 1	    1.08208	   -3.69847	 220.0	 3	    1.11000	    0.95000;
	114	 1	 0.0	 0.0	 0.0	 0.0	 1	    1.08199	   -3.71064	 220.0	 3	    1.11000	    0.95000;
	115	 2	 29.36	 18.51	 0.0	 0.0	 1	    1.09280	   -2.89125	 220.0	 3	    1.11000	    0.95000;
	116	 1	 0.0	 0.0	 0.0	 0.0	 1	    1.09278	   -2.90269	 220.0	 3	    1.11000	    0.95000;
	117	 1	 0.0	 0.0	 0.0	 0.0	 1	    1.08546	   -8.56570	 220.0	 3	    1.11000	    0.95000;
	118	 1	 0.0	 0.0	 0.0	 0.0	 1	    1.08544	   -8.56362	 220.0	 3	    1.11000	    0.95000;
	119	 1	 0.0	 0.0	 0.0	 0.0	 1	    1.04862	   -4.66158	 220.0	 3	    1.11000	    0.95000;
	120	 1	 0.0	 0.0	 0.0	 0.0	 1	    1.04857	   -4.66310	 220.0	 3	    1.11000	    0.95000;
	121	 2	 0.0	 0.0	 0.0	 0.0	 1	    1.10683	   -1.80708	 220.0	 3	    1.11000	    0.95000;
	122	 2	 10.05	 44.21	 0.0	 0.0	 1	    1.10688	   -1.80563	 220.0	 3	    1.11000	    0.95000;
	123	 2	 7.03	 18.09	 0.0	 0.0	 1	    1.10316	   -1.73756	 220.0	 3	    1.11000	    0.95000;
	124	 2	 8.04	 21.1	 0.0	 0.0	 1	    1.10322	   -1.72760	 220.0	 3	    1.11000	    0.95000;
	125	 1	 0.0	 0.0	 0.0	 0.0	 1	    1.08962	   -4.19311	 220.0	 3	    1.11000	    0.95000;
	126	 1	 71.54	 7.94	 0.0	 0.0	 1	    1.08966	   -4.20033	 220.0	 3	    1.11000	    0.95000;
	127	 1	 0.0	 0.0	 0.0	 0.0	 1	    1.04320	   -4.63821	 220.0	 3	    1.11000	    0.95000;
	128	 1	 0.0	 0.0	 0.0	 0.0	 1	    1.08231	   -2.72860	 220.0	 3	    1.11000	    0.95000;
	129	 1	 0.0	 0.0	 0.0	 0.0	 1	    1.08233	   -2.73025	 220.0	 3	    1.11000	    0.95000;
	130	 1	 0.0	 0.0	 0.0	 0.0	 1	    1.08165	   -3.09221	 220.0	 3	    1.11000	    0.95000;
	131	 1	 0.0	 0.0	 0.0	 0.0	 1	    1.08175	   -3.08332	 220.0	 3	    1.11000	    0.95000;
	132	 1	 0.0	 0.0	 0.0	 0.0	 1	    1.04597	   -5.49919	 400.0	 3	    1.05000	    0.95000;
	133	 1	 0.0	 0.0	 0.0	 0.0	 1	    1.04597	   -5.49919	 400.0	 3	    1.05000	    0.95000;
	134	 2	 0.0	 0.0	 0.0	 0.0	 1	    1.09229	   -2.49054	 220.0	 3	    1.11000	    0.95000;
	135	 2	 9.04	 20.1	 0.0	 0.0	 1	    1.09226	   -2.49205	 220.0	 3	    1.11000	    0.95000;
	136	 2	 6.03	 15.07	 0.0	 0.0	 1	    1.06630	   -3.87212	 220.0	 3	    1.11000	    0.95000;
	137	 1	 0.0	 0.0	 0.0	 0.0	 1	    1.06633	   -3.88340	 220.0	 3	    1.11000	    0.95000;
	138	 1	 0.0	 0.0	 0.0	 0.0	 1	    1.04697	  -10.54246	 400.0	 3	    1.05000	    0.95000;
	139	 1	 0.0	 0.0	 0.0	 0.0	 1	    1.04700	  -10.54524	 400.0	 3	    1.05000	    0.95000;
	140	 1	 0.0	 0.0	 0.0	 0.0	 1	    1.05000	   -5.81345	 400.0	 3	    1.05000	    0.95000;
	141	 1	 0.0	 0.0	 0.0	 0.0	 1	    1.05000	   -5.81030	 400.0	 3	    1.05000	    0.95000;
	142	 1	 0.0	 0.0	 0.0	 0.0	 1	    1.03831	   -4.86789	 220.0	 3	    1.11000	    0.95000;
	143	 1	 0.0	 0.0	 0.0	 0.0	 1	    1.03840	   -4.86480	 220.0	 3	    1.11000	    0.95000;
	144	 2	 18.34	 15.86	 0.0	 0.0	 1	    1.10990	   -1.47834	 220.0	 3	    1.11000	    0.95000;
	145	 2	 41.01	 43.07	 0.0	 0.0	 1	    1.11000	   -1.45586	 220.0	 3	    1.11000	    0.95000;
	146	 2	 28.13	 66.31	 0.0	 0.0	 1	    1.04980	   -4.78671	 400.0	 3	    1.05000	    0.95000;
	147	 1	 0.0	 0.0	 0.0	 0.0	 1	    1.04977	   -4.78639	 400.0	 3	    1.05000	    0.95000;
	148	 1	 0.0	 0.0	 0.0	 0.0	 1	    1.09318	   -3.90662	 220.0	 3	    1.11000	    0.95000;
	149	 1	 0.0	 0.0	 0.0	 0.0	 1	    1.09325	   -3.90009	 220.0	 3	    1.11000	    0.95000;
	150	 1	 0.0	 0.0	 0.0	 0.0	 1	    1.10242	   -1.72728	 220.0	 3	    1.11000	    0.95000;
	151	 1	 0.0	 0.0	 0.0	 0.0	 1	    1.09644	   -3.52443	 220.0	 3	    1.11000	    0.95000;
	152	 2	 0.0	 0.0	 0.0	 0.0	 1	    1.06365	   -4.29769	 220.0	 3	    1.11000	    0.95000;
	153	 2	 0.0	 0.0	 0.0	 0.0	 1	    1.06338	   -4.30501	 220.0	 3	    1.11000	    0.95000;
	154	 2	 7.84	 20.1	 0.0	 0.0	 1	    1.08985	  -11.24744	 220.0	 4	    1.11000	    0.95000;
	155	 2	 8.04	 20.1	 0.0	 0.0	 1	    1.08984	  -11.25777	 220.0	 4	    1.11000	    0.95000;
	156	 1	 0.0	 0.0	 0.0	 0.0	 1	    1.06302	  -12.43240	 220.0	 4	    1.11000	    0.95000;
	157	 1	 0.0	 0.0	 0.0	 0.0	 1	    1.06299	  -12.43528	 220.0	 4	    1.11000	    0.95000;
	158	 1	 0.0	 0.0	 0.0	 0.0	 1	    1.05455	  -14.58974	 220.0	 4	    1.11000	    0.95000;
	159	 1	 0.0	 0.0	 0.0	 0.0	 1	    1.08032	  -10.42342	 220.0	 4	    1.11000	    0.95000;
	160	 1	 0.0	 0.0	 0.0	 0.0	 1	    1.08024	  -10.43439	 220.0	 4	    1.11000	    0.95000;
	161	 1	 0.0	 0.0	 0.0	 0.0	 1	    1.02385	  -11.00835	 400.0	 4	    1.05000	    0.95000;
	162	 1	 0.0	 0.0	 0.0	 0.0	 1	    1.02382	  -11.01365	 400.0	 4	    1.05000	    0.95000;
	163	 1	 0.0	 0.0	 0.0	 0.0	 1	    1.02911	  -25.18240	 220.0	 4	    1.11000	    0.95000;
	164	 1	 0.0	 0.0	 0.0	 0.0	 1	    1.07732	  -28.77742	 220.0	 4	    1.11000	    0.95000;
	165	 1	 0.0	 0.0	 0.0	 0.0	 1	    1.07732	  -28.77742	 220.0	 4	    1.11000	    0.95000;
	166	 1	 0.0	 0.0	 0.0	 0.0	 1	    1.07558	  -25.79723	 220.0	 4	    1.11000	    0.95000;
	167	 1	 0.0	 0.0	 0.0	 0.0	 1	    1.07558	  -25.79723	 220.0	 4	    1.11000	    0.95000;
	168	 1	 0.0	 0.0	 0.0	 0.0	 1	    1.05399	  -14.87726	 220.0	 4	    1.11000	    0.95000;
	169	 2	 0.0	 0.0	 0.0	 0.0	 1	    1.08146	  -15.94904	 220.0	 4	    1.11000	    0.95000;
	170	 2	 0.0	 0.0	 0.0	 0.0	 1	    1.08144	  -15.96192	 220.0	 4	    1.11000	    0.95000;
	171	 1	 0.0	 0.0	 0.0	 0.0	 1	    1.11000	  -13.43981	 220.0	 4	    1.11000	    0.95000;
	172	 2	 12.06	 30.14	 0.0	 0.0	 1	    1.10434	  -26.57814	 220.0	 4	    1.11000	    0.95000;
	173	 2	 9.39	 2.43	 0.0	 0.0	 1	    1.10425	  -26.58607	 220.0	 4	    1.11000	    0.95000;
	174	 2	 12.06	 30.14	 0.0	 0.0	 1	    1.03181	  -24.84741	 400.0	 4	    1.05000	    0.95000;
	175	 2	 24.11	 60.29	 0.0	 0.0	 1	    1.03180	  -24.84525	 400.0	 4	    1.05000	    0.95000;
	176	 1	 0.0	 0.0	 0.0	 0.0	 1	    0.99749	  -24.19074	 220.0	 4	    1.11000	    0.95000;
	177	 1	 0.0	 0.0	 0.0	 0.0	 1	    0.99761	  -24.19798	 220.0	 4	    1.11000	    0.95000;
	178	 1	 0.0	 0.0	 0.0	 0.0	 1	    1.05257	  -19.04290	 220.0	 4	    1.11000	    0.95000;
	179	 1	 0.0	 0.0	 0.0	 0.0	 1	    1.05259	  -19.04506	 220.0	 4	    1.11000	    0.95000;
	180	 2	 26.12	 64.3	 0.0	 0.0	 1	    1.11000	   -6.22353	 220.0	 4	    1.11000	    0.95000;
	181	 2	 26.12	 64.3	 0.0	 0.0	 1	    1.11000	   -6.22977	 220.0	 4	    1.11000	    0.95000;
	182	 2	 26.12	 64.51	 0.0	 0.0	 1	    1.11000	   -6.20662	 220.0	 4	    1.11000	    0.95000;
	183	 2	 26.12	 64.51	 0.0	 0.0	 1	    1.04948	   -5.98618	 400.0	 4	    1.05000	    0.95000;
	184	 1	 0.0	 0.0	 0.0	 0.0	 1	    1.04945	   -5.98656	 400.0	 4	    1.05000	    0.95000;
	185	 1	 0.0	 0.0	 0.0	 0.0	 1	    1.08119	  -28.85844	 220.0	 4	    1.11000	    0.95000;
	186	 1	 0.0	 0.0	 0.0	 0.0	 1	    1.08119	  -28.85844	 220.0	 4	    1.11000	    0.95000;
	187	 1	 0.0	 0.0	 0.0	 0.0	 1	    1.01056	  -12.94232	 400.0	 4	    1.05000	    0.95000;
	188	 1	 0.0	 0.0	 0.0	 0.0	 1	    0.98037	  -18.41225	 400.0	 4	    1.05000	    0.95000;
	189	 1	 0.0	 0.0	 0.0	 0.0	 1	    1.02294	  -11.07777	 400.0	 4	    1.05000	    0.95000;
	190	 1	 0.0	 0.0	 0.0	 0.0	 1	    1.02295	  -11.07373	 400.0	 4	    1.05000	    0.95000;
	191	 2	 12.06	 30.14	 0.0	 0.0	 1	    1.08326	  -16.06945	 220.0	 4	    1.11000	    0.95000;
	192	 2	 14.66	 30.65	 0.0	 0.0	 1	    1.08299	  -16.10991	 220.0	 4	    1.11000	    0.95000;
	193	 2	 38.18	 64.3	 0.0	 0.0	 1	    1.02796	   -9.45444	 400.0	 4	    1.05000	    0.95000;
	194	 1	 0.0	 0.0	 0.0	 0.0	 1	    1.01611	  -31.35770	 220.0	 4	    1.11000	    0.95000;
	195	 1	 0.0	 0.0	 0.0	 0.0	 1	    1.01615	  -31.36243	 220.0	 4	    1.11000	    0.95000;
	196	 1	 0.0	 0.0	 0.0	 0.0	 1	    1.07676	  -28.86758	 220.0	 4	    1.11000	    0.95000;
	197	 1	 0.0	 0.0	 0.0	 0.0	 1	    1.07677	  -28.86887	 220.0	 4	    1.11000	    0.95000;
	198	 1	 0.0	 0.0	 0.0	 0.0	 1	    1.02334	  -26.12950	 220.0	 4	    1.11000	    0.95000;
	199	 1	 0.0	 0.0	 0.0	 0.0	 1	    1.02332	  -26.12334	 220.0	 4	    1.11000	    0.95000;
	200	 1	 0.0	 0.0	 0.0	 0.0	 1	    0.98048	  -27.19714	 400.0	 4	    1.05000	    0.95000;
	201	 1	 0.0	 0.0	 0.0	 0.0	 1	    0.98048	  -27.19714	 400.0	 4	    1.05000	    0.95000;
	202	 1	 0.0	 0.0	 0.0	 0.0	 1	    1.01894	  -18.37085	 220.0	 4	    1.11000	    0.95000;
	203	 1	 0.0	 0.0	 0.0	 0.0	 1	    1.01893	  -18.36628	 220.0	 4	    1.11000	    0.95000;
	204	 1	 0.0	 0.0	 0.0	 0.0	 1	    1.01325	  -26.85627	 220.0	 4	    1.11000	    0.95000;
	205	 1	 0.0	 0.0	 0.0	 0.0	 1	    1.06326	  -12.04793	 220.0	 4	    1.11000	    0.95000;
	206	 1	 0.0	 0.0	 0.0	 0.0	 1	    1.06327	  -12.05870	 220.0	 4	    1.11000	    0.95000;
	207	 1	 0.0	 0.0	 0.0	 0.0	 1	    1.05631	  -11.06545	 220.0	 4	    1.11000	    0.95000;
	208	 2	 3.14	 1.51	 0.0	 0.0	 1	    1.07166	  -17.59169	 220.0	 4	    1.11000	    0.95000;
	209	 1	 0.0	 0.0	 0.0	 0.0	 1	    1.00997	  -19.55185	 220.0	 4	    1.11000	    0.95000;
	210	 1	 0.0	 0.0	 0.0	 0.0	 1	    1.00994	  -19.54536	 220.0	 4	    1.11000	    0.95000;
	211	 1	 0.0	 0.0	 0.0	 0.0	 1	    1.04444	  -25.17834	 220.0	 5	    1.11000	    0.95000;
	212	 1	 0.0	 0.0	 0.0	 0.0	 1	    1.11000	  -27.91737	 220.0	 5	    1.11000	    0.95000;
	213	 1	 0.0	 0.0	 0.0	 0.0	 1	    1.03128	  -26.64731	 400.0	 5	    1.05000	    0.95000;
	214	 1	 0.0	 0.0	 0.0	 0.0	 1	    1.03131	  -26.64620	 400.0	 5	    1.05000	    0.95000;
	215	 1	 0.0	 0.0	 0.0	 0.0	 1	    1.02510	  -25.79946	 400.0	 5	    1.05000	    0.95000;
	216	 1	 0.0	 0.0	 0.0	 0.0	 1	    1.02511	  -25.80521	 400.0	 5	    1.05000	    0.95000;
	217	 1	 0.0	 0.0	 0.0	 0.0	 1	    1.03189	  -31.09658	 400.0	 5	    1.05000	    0.95000;
	218	 1	 0.0	 0.0	 0.0	 0.0	 1	    1.02546	  -29.62100	 220.0	 5	    1.11000	    0.95000;
	219	 1	 0.0	 0.0	 0.0	 0.0	 1	    1.02546	  -29.62564	 220.0	 5	    1.11000	    0.95000;
	220	 1	 0.0	 0.0	 0.0	 0.0	 1	    1.05688	  -25.38261	 220.0	 5	    1.11000	    0.95000;
	221	 1	 0.0	 0.0	 0.0	 0.0	 1	    1.05681	  -25.38629	 220.0	 5	    1.11000	    0.95000;
	222	 1	 0.0	 0.0	 0.0	 0.0	 1	    1.00880	  -22.74613	 400.0	 5	    1.05000	    0.95000;
	223	 1	 0.0	 0.0	 0.0	 0.0	 1	    1.00880	  -22.74613	 400.0	 5	    1.05000	    0.95000;
	224	 1	 0.0	 0.0	 0.0	 0.0	 1	    1.03082	  -28.35165	 400.0	 5	    1.05000	    0.95000;
	225	 1	 0.0	 0.0	 0.0	 0.0	 1	    1.05246	  -24.29993	 220.0	 5	    1.11000	    0.95000;
	226	 1	 0.0	 0.0	 0.0	 0.0	 1	    1.05248	  -24.29366	 220.0	 5	    1.11000	    0.95000;
	227	 1	 0.0	 0.0	 0.0	 0.0	 1	    1.07047	  -27.95345	 220.0	 5	    1.11000	    0.95000;
	228	 1	 0.0	 0.0	 0.0	 0.0	 1	    1.06024	  -28.06384	 220.0	 5	    1.11000	    0.95000;
	229	 1	 0.0	 0.0	 0.0	 0.0	 1	    1.02770	  -27.84484	 400.0	 5	    1.05000	    0.95000;
	230	 1	 0.0	 0.0	 0.0	 0.0	 1	    1.02767	  -27.84512	 400.0	 5	    1.05000	    0.95000;
	231	 1	 0.0	 0.0	 0.0	 0.0	 1	    1.05000	  -31.29887	 400.0	 5	    1.05000	    0.95000;
	232	 1	 0.0	 0.0	 0.0	 0.0	 1	    1.05232	  -28.13939	 220.0	 5	    1.11000	    0.95000;
	233	 1	 0.0	 0.0	 0.0	 0.0	 1	    1.05240	  -28.13473	 220.0	 5	    1.11000	    0.95000;
	234	 1	 0.0	 0.0	 0.0	 70.0	 1	    1.03676	  -26.30136	 400.0	 5	    1.25000	    0.75000;
	235	 1	 0.0	 0.0	 0.0	 0.0	 1	    1.03675	  -26.30272	 400.0	 5	    1.05000	    0.95000;
	236	 1	 0.0	 0.0	 0.0	 0.0	 1	    1.03075	  -26.51758	 220.0	 5	    1.11000	    0.95000;
	237	 1	 0.0	 0.0	 0.0	 0.0	 1	    1.03070	  -26.51690	 220.0	 5	    1.11000	    0.95000;
	238	 1	 0.0	 0.0	 0.0	 0.0	 1	    1.03326	  -24.53341	 220.0	 5	    1.11000	    0.95000;
	239	 1	 0.0	 0.0	 0.0	 0.0	 1	    1.03319	  -24.54883	 220.0	 5	    1.11000	    0.95000;
	240	 2	 2.01	 40.19	 0.0	 0.0	 1	    1.02380	  -24.87679	 400.0	 5	    1.05000	    0.95000;
	241	 2	 5.55	 30.14	 0.0	 0.0	 1	    1.02380	  -24.87461	 400.0	 5	    1.05000	    0.95000;
	242	 1	 0.0	 0.0	 0.0	 0.0	 1	    1.06935	  -29.39441	 220.0	 5	    1.11000	    0.95000;
	243	 1	 0.0	 0.0	 0.0	 0.0	 1	    1.06946	  -29.38870	 220.0	 5	    1.11000	    0.95000;
	244	 2	 0.0	 0.0	 0.0	 0.0	 0	    1.11000	   -1.39390	 220.0	 0	    1.11000	    0.95000;
	245	 1	 9.94	 2.01	 0.0	 0.0	 1	    1.04928	  -26.64482	 110.0	 1	    1.12000	    0.95000;
	246	 1	 8.89	 0.0	 0.0	 0.0	 1	    1.06371	  -33.35350	 110.0	 1	    1.12000	    0.95000;
	247	 1	 8.89	 0.0	 0.0	 0.0	 1	    1.06361	  -33.34711	 110.0	 1	    1.12000	    0.95000;
	248	 1	 6.09	 1.0	 0.0	 0.0	 1	    1.09521	  -20.34422	 110.0	 1	    1.12000	    0.95000;
	249	 1	 6.09	 2.01	 0.0	 0.0	 1	    1.09515	  -20.36907	 110.0	 1	    1.12000	    0.95000;
	250	 1	 2.94	 2.51	 0.0	 0.0	 1	    1.02490	  -25.14350	 110.0	 1	    1.12000	    0.95000;
	251	 1	 6.29	 5.83	 0.0	 0.0	 1	    1.02485	  -25.14612	 110.0	 1	    1.12000	    0.95000;
	252	 1	 5.18	 1.31	 0.0	 0.0	 1	    1.08964	   -2.23761	 110.0	 1	    1.12000	    0.95000;
	253	 1	 6.2	 1.0	 0.0	 0.0	 1	    1.07824	   -3.37941	 110.0	 1	    1.12000	    0.95000;
	254	 2	 -11.53	 119.74	 0.0	 0.0	 1	    1.09302	  -23.68781	 110.0	 1	    1.12000	    0.95000;
	255	 1	 23.02	 2.01	 0.0	 0.0	 1	    1.09380	  -23.83409	 110.0	 1	    1.12000	    0.95000;
	256	 1	 14.65	 1.51	 0.0	 0.0	 1	    1.09548	  -23.96133	 110.0	 1	    1.12000	    0.95000;
	257	 1	 16.74	 0.0	 0.0	 0.0	 1	    1.09553	  -24.10394	 110.0	 1	    1.12000	    0.95000;
	258	 1	 26.16	 3.01	 0.0	 0.0	 1	    1.09389	  -24.25529	 110.0	 1	    1.12000	    0.95000;
	259	 1	 11.51	 2.01	 0.0	 0.0	 1	    1.09333	  -23.82733	 110.0	 1	    1.12000	    0.95000;
	260	 1	 5.23	 1.0	 0.0	 0.0	 1	    1.09312	  -24.21478	 110.0	 1	    1.12000	    0.95000;
	261	 1	 5.23	 1.0	 0.0	 0.0	 1	    1.09302	  -24.19624	 110.0	 1	    1.12000	    0.95000;
	262	 1	 0.0	 0.0	 0.0	 0.0	 1	    1.09494	  -24.23374	 110.0	 1	    1.12000	    0.95000;
	263	 1	 7.72	 1.51	 0.0	 0.0	 1	    1.08716	  -23.37940	 110.0	 1	    1.12000	    0.95000;
	264	 1	 5.59	 1.0	 0.0	 0.0	 1	    1.08726	  -23.37227	 110.0	 1	    1.12000	    0.95000;
	265	 1	 5.05	 0.5	 0.0	 0.0	 1	    1.09264	  -22.52433	 110.0	 1	    1.12000	    0.95000;
	266	 1	 5.05	 0.5	 0.0	 0.0	 1	    1.09259	  -22.54466	 110.0	 1	    1.12000	    0.95000;
	267	 2	 0.06	 0.0	 0.0	 0.0	 1	    1.05820	  -17.74602	 110.0	 1	    1.12000	    0.95000;
	268	 2	 10.87	 2.51	 0.0	 0.0	 1	    1.07517	  -10.82112	 110.0	 1	    1.12000	    0.95000;
	269	 1	 20.71	 5.63	 0.0	 0.0	 1	    1.09839	  -22.33284	 110.0	 1	    1.12000	    0.95000;
	270	 1	 0.91	 0.4	 0.0	 0.0	 1	    1.09122	   -4.58369	 110.0	 1	    1.12000	    0.95000;
	271	 1	 1.21	 -0.9	 0.0	 0.0	 1	    1.08727	   -0.59356	 110.0	 1	    1.12000	    0.95000;
	272	 1	 5.66	 0.3	 0.0	 0.0	 1	    1.09885	  -23.48590	 110.0	 1	    1.12000	    0.95000;
	273	 1	 5.23	 0.2	 0.0	 0.0	 1	    1.09392	  -30.12586	 110.0	 1	    1.12000	    0.95000;
	274	 1	 24.07	 2.01	 0.0	 0.0	 1	    1.07366	  -25.51085	 110.0	 1	    1.12000	    0.95000;
	275	 1	 4.17	 2.11	 0.0	 0.0	 1	    1.10878	   -8.94089	 110.0	 1	    1.12000	    0.95000;
	276	 1	 8.33	 1.51	 0.0	 0.0	 1	    1.05946	  -14.16064	 110.0	 1	    1.12000	    0.95000;
	277	 1	 3.15	 0.5	 0.0	 0.0	 1	    1.11187	  -22.43303	 110.0	 1	    1.12000	    0.95000;
	278	 2	 3.86	 1.61	 0.0	 0.0	 1	    1.11576	   -8.58447	 110.0	 1	    1.12000	    0.95000;
	279	 2	 3.86	 1.61	 0.0	 0.0	 1	    1.11989	   -9.83625	 110.0	 1	    1.12000	    0.95000;
	280	 1	 24.36	 6.53	 0.0	 0.0	 1	    1.08589	  -22.81166	 110.0	 1	    1.12000	    0.95000;
	281	 1	 10.36	 2.21	 0.0	 0.0	 1	    1.07940	   -3.24174	 110.0	 1	    1.12000	    0.95000;
	282	 1	 6.09	 0.5	 0.0	 0.0	 1	    1.07551	  -12.61916	 110.0	 1	    1.12000	    0.95000;
	283	 1	 3.25	 0.2	 0.0	 0.0	 1	    1.07550	  -12.61232	 110.0	 1	    1.12000	    0.95000;
	284	 1	 13.51	 7.03	 0.0	 0.0	 1	    1.07452	   -2.28378	 110.0	 1	    1.12000	    0.95000;
	285	 1	 20.72	 11.55	 0.0	 0.0	 1	    1.07442	   -2.30596	 110.0	 1	    1.12000	    0.95000;
	286	 1	 10.31	 0.4	 0.0	 0.0	 1	    1.07659	  -27.17570	 110.0	 1	    1.12000	    0.95000;
	287	 1	 12.6	 4.52	 0.0	 0.0	 1	    1.11096	   -8.39796	 110.0	 1	    1.12000	    0.95000;
	288	 1	 9.6	 0.8	 0.0	 0.0	 1	    1.07557	  -27.39892	 110.0	 1	    1.12000	    0.95000;
	289	 1	 0.0	 0.0	 0.0	 0.0	 1	    1.07559	  -27.40423	 110.0	 1	    1.12000	    0.95000;
	290	 1	 6.28	 0.3	 0.0	 0.0	 1	    1.07534	  -27.46571	 110.0	 1	    1.12000	    0.95000;
	291	 1	 5.23	 0.0	 0.0	 0.0	 1	    1.06945	  -27.55962	 110.0	 1	    1.12000	    0.95000;
	292	 1	 4.19	 0.0	 0.0	 0.0	 1	    1.06940	  -27.56260	 110.0	 1	    1.12000	    0.95000;
	293	 1	 1.05	 0.0	 0.0	 0.0	 1	    1.07874	  -26.82439	 110.0	 1	    1.12000	    0.95000;
	294	 1	 0.0	 0.0	 0.0	 0.0	 1	    1.07879	  -26.84743	 110.0	 1	    1.12000	    0.95000;
	295	 2	 0.23	 0.4	 0.0	 0.0	 1	    1.08297	  -24.43295	 110.0	 1	    1.12000	    0.95000;
	296	 1	 0.0	 0.0	 0.0	 0.0	 1	    1.08300	  -24.45012	 110.0	 1	    1.12000	    0.95000;
	297	 1	 9.42	 2.01	 0.0	 0.0	 1	    1.06166	  -31.20421	 110.0	 1	    1.12000	    0.95000;
	298	 1	 0.3	 0.1	 0.0	 0.0	 1	    1.10341	   -5.67640	 110.0	 1	    1.12000	    0.95000;
	299	 1	 0.3	 0.1	 0.0	 0.0	 1	    1.10010	   -5.66724	 110.0	 1	    1.12000	    0.95000;
	300	 1	 13.51	 7.64	 0.0	 0.0	 1	    1.10119	   -5.75539	 110.0	 1	    1.12000	    0.95000;
	301	 1	 0.51	 0.2	 0.0	 0.0	 1	    1.10007	   -5.66883	 110.0	 1	    1.12000	    0.95000;
	302	 1	 7.78	 0.1	 0.0	 0.0	 1	    1.07870	  -29.45428	 110.0	 1	    1.12000	    0.95000;
	303	 1	 8.99	 0.1	 0.0	 0.0	 1	    1.07872	  -29.46572	 110.0	 1	    1.12000	    0.95000;
	304	 1	 6.71	 2.21	 0.0	 0.0	 1	    1.11128	   -9.26237	 110.0	 1	    1.12000	    0.95000;
	305	 1	 6.7	 0.6	 0.0	 0.0	 1	    1.10226	   -5.93681	 110.0	 1	    1.12000	    0.95000;
	306	 1	 3.66	 0.3	 0.0	 0.0	 1	    1.10226	   -5.91721	 110.0	 1	    1.12000	    0.95000;
	307	 1	 4.16	 1.0	 0.0	 0.0	 1	    1.09965	  -23.64759	 110.0	 1	    1.12000	    0.95000;
	308	 1	 0.0	 0.0	 0.0	 0.0	 1	    1.08673	   -0.56228	 110.0	 1	    1.12000	    0.95000;
	309	 1	 0.0	 0.0	 0.0	 0.0	 1	    1.08679	   -0.58343	 110.0	 1	    1.12000	    0.95000;
	310	 2	 33.84	 48.83	 0.0	 0.0	 1	    1.00025	    3.11065	 24.0	 1	    1.12000	    0.95000;
	311	 1	 6.28	 0.5	 0.0	 0.0	 1	    1.09097	  -31.73998	 110.0	 1	    1.12000	    0.95000;
	312	 1	 6.28	 0.5	 0.0	 0.0	 1	    1.09093	  -31.76019	 110.0	 1	    1.12000	    0.95000;
	313	 1	 4.71	 0.5	 0.0	 0.0	 1	    1.09304	  -31.57284	 110.0	 1	    1.12000	    0.95000;
	314	 1	 2.62	 0.5	 0.0	 0.0	 1	    1.10287	  -30.58734	 110.0	 1	    1.12000	    0.95000;
	315	 1	 0.0	 0.0	 0.0	 45.0	 1	    1.08179	  -31.00355	 16.0	 1	    1.25000	    0.75000;
	316	 2	 0.0	 -0.02	 0.0	 0.0	 1	    1.05287	  -24.16744	 110.0	 1	    1.12000	    0.95000;
	317	 1	 17.79	 2.51	 0.0	 0.0	 1	    1.09274	  -24.31474	 110.0	 1	    1.12000	    0.95000;