%%%%%%%%%%%%%%%%%%%%%%%%%%%%%%%%%%%%%%%%%%%%%%%%%%%%%%%%%%%%%%%%%%%%%%%%%%%
%%%%                                                                  %%%%%
%%%%    IEEE PES Power Grid Library - Optimal Power Flow - v17.07     %%%%%
%%%%          (https://github.com/power-grid-lib/pglib-opf)           %%%%%
%%%%               Benchmark Group - Typical Operations               %%%%%
%%%%                         26 - June - 2017                         %%%%%
%%%%                                                                  %%%%%
%%%%%%%%%%%%%%%%%%%%%%%%%%%%%%%%%%%%%%%%%%%%%%%%%%%%%%%%%%%%%%%%%%%%%%%%%%%
%
%CASE6515RTE
%   AC Power flow data for French system.
%   Please see CASEFORMAT for details on the case file format.
%
%   This case accurately represents the size and complexity of French
%   very high voltage and high voltage transmission network.
%   These data are snapshots of French VHV+HV grid in 2013.
%   These data can be used to validate mathematical methods and tools.
%   These data should NOT be used for operation
%   nor planning of the French or European grids.
%
%   When publishing results using this data, please cite:
%     C. Josz, S. Fliscounakis, J. Maeght, and P. Panciatici,
%     "AC Power Flow Data in MATPOWER and QCQP Format: iTesla, RTE Snapshots, and PEGASE"
%     http://arxiv.org/abs/1603.01533
%
%   Contacts (primary contact for this file : Jean Maeght):
%   Cédric Josz, Stéphane Fliscounakis, Jean Maeght, Patrick Panciatici
%   firstname.lastname@rte-france.com
%   Réseau de Transport d'Electricité (French Transmission System Operator)
%   Département Expertise Système, Immeuble "Le Colbert"
%   9 rue de la Porte de Buc, 78000 Versailles Cedex, France
%   March 4th, 2016
%
%   Copyright (c) 2016 by Cédric Josz, Stéphane Fliscounakis, Jean Maeght,
%   and Patrick Panciatici
%   Licensed under the Creative Commons Attribution 4.0 International license,
%   http://creativecommons.org/licenses/by/4.0/
%
function mpc = pglib_opf_case6515_rte
mpc.version = '2';
mpc.baseMVA = 100.0;

%% bus data
%	bus_i	type	Pd	Qd	Gs	Bs	area	Vm	Va	baseKV	zone	Vmax	Vmin
mpc.bus = [
	1	 1	 0.0	 0.0	 0.0	 0.0	 1	    0.99995	  -29.81475	 45.0	 1	    1.00000	    0.88889;
	2	 1	 0.0	 0.0	 0.0	 0.0	 1	    1.05486	  -12.95694	 63.0	 1	    1.06349	    0.93651;
	3	 1	 14.8	 3.8	 0.0	 0.0	 1	    0.98519	  -31.11817	 63.0	 1	    1.07937	    0.95238;
	4	 1	 49.6	 2.8	 0.0	 0.0	 1	    1.04238	  -31.42676	 90.0	 1	    1.08889	    0.93333;
	5	 1	 12.9	 0.9	 0.0	 0.0	 1	    1.02168	  -56.12343	 63.0	 1	    1.06349	    0.95238;
	6	 1	 13.0	 5.3	 0.0	 0.0	 1	    1.03500	  -12.58596	 63.0	 1	    1.07937	    0.92063;
	7	 1	 2.3	 0.2	 0.0	 0.0	 1	    1.04564	  -13.85951	 63.0	 1	    1.07937	    0.92063;
	8	 1	 15.8	 -0.3	 0.0	 0.0	 1	    1.06007	  -25.12157	 225.0	 1	    1.08889	    0.88889;
	9	 1	 14.9	 0.0	 0.0	 0.0	 1	    1.03717	  -35.02893	 63.0	 1	    1.06349	    0.93651;
	10	 1	 0.0	 0.0	 0.0	 0.0	 1	    1.04087	  -29.78656	 90.0	 1	    1.07778	    0.92222;
	11	 1	 33.2	 4.9	 0.0	 0.0	 1	    1.04087	  -29.78656	 90.0	 1	    1.07778	    0.92222;
	12	 1	 0.0	 0.0	 0.0	 0.0	 1	    1.02419	  -19.06081	 63.0	 1	    1.07937	    0.95238;
	13	 1	 0.0	 0.0	 0.0	 0.0	 1	    1.08829	   -3.47294	 380.0	 1	    1.10263	    1.05271;
	14	 1	 63.2	 13.3	 0.0	 30.4	 1	    1.06650	  -34.98121	 90.0	 1	    1.07778	    0.97778;
	15	 1	 0.0	 0.0	 0.0	 0.0	 1	    1.02973	  -14.82367	 63.0	 1	    1.07937	    0.92063;
	16	 1	 13.9	 1.9	 0.0	 0.0	 1	    1.02901	  -19.66910	 63.0	 1	    1.07937	    0.92063;
	17	 1	 10.9	 0.1	 0.0	 0.0	 1	    1.04820	  -28.52828	 90.0	 1	    1.06667	    0.97778;
	18	 1	 0.0	 0.0	 0.0	 0.0	 1	    0.96529	  -24.76024	 45.0	 1	    1.00000	    0.88889;
	19	 1	 1.0	 0.0	 0.0	 0.0	 1	    1.03226	  -22.66197	 63.0	 1	    1.06349	    0.93651;
	20	 1	 5.6	 -18.0	 0.0	 0.0	 1	    0.96600	  -24.79738	 45.0	 1	    1.00000	    0.88889;
	21	 1	 7.6	 -1.6	 0.0	 0.0	 1	    1.02444	  -16.59207	 90.0	 1	    1.06667	    0.97778;
	22	 1	 18.5	 1.0	 0.0	 0.0	 1	    1.03931	  -24.42490	 63.0	 1	    1.07937	    0.95238;
	23	 1	 22.4	 2.2	 0.0	 0.0	 1	    1.05084	  -29.28438	 63.0	 1	    1.06349	    0.93651;
	24	 1	 17.0	 -1.5	 0.0	 0.0	 1	    1.04455	  -29.91220	 90.0	 1	    1.11111	    0.95556;
	25	 1	 54.7	 -1.1	 0.0	 0.0	 1	    1.08009	  -26.37443	 90.0	 1	    1.10000	    0.94444;
	26	 1	 15.1	 10.6	 0.0	 0.0	 1	    1.03175	  -25.24203	 90.0	 1	    1.06667	    0.97778;
	27	 1	 0.0	 0.0	 0.0	 0.0	 1	    1.06962	  -20.51048	 225.0	 1	    1.08444	    1.00444;
	28	 1	 0.9	 -0.2	 0.0	 0.0	 1	    1.03552	  -31.24267	 63.0	 1	    1.07937	    0.95238;
	29	 1	 76.5	 9.4	 0.0	 0.0	 1	    1.03213	  -21.10584	 63.0	 1	    1.06349	    0.96825;
	30	 1	 39.9	 3.5	 0.0	 0.0	 1	    1.03965	  -30.15387	 90.0	 1	    1.08889	    0.93333;
	31	 1	 0.0	 0.0	 0.0	 0.0	 1	    1.06069	  -26.80404	 63.0	 1	    1.06349	    0.93651;
	32	 1	 0.0	 0.0	 0.0	 0.0	 1	    1.09540	  -23.85616	 150.0	 1	    1.10667	    0.90000;
	33	 1	 0.0	 0.0	 0.0	 0.0	 1	    1.07238	  -23.49955	 225.0	 1	    1.08889	    0.93333;
	34	 1	 0.0	 0.0	 0.0	 0.0	 1	    1.07921	  -23.64814	 225.0	 1	    1.08889	    0.93333;
	35	 1	 0.0	 0.0	 0.0	 0.0	 1	    1.06372	  -19.30179	 380.0	 1	    1.10526	    1.03947;
	36	 1	 0.0	 0.0	 0.0	 0.0	 1	    1.03947	  -18.14832	 380.0	 1	    1.10526	    1.03947;
	37	 1	 -2.7	 3.0	 0.0	 0.0	 1	    1.02344	  -17.80481	 63.0	 1	    1.07937	    0.92063;
	38	 1	 5.0	 -1.0	 0.0	 0.0	 1	    1.04767	  -28.18569	 63.0	 1	    1.09524	    0.93651;
	39	 1	 43.6	 -2.9	 0.0	 0.0	 1	    1.03196	  -42.57521	 90.0	 1	    1.07778	    0.97778;
	40	 1	 38.1	 4.1	 0.0	 0.0	 1	    1.05760	  -32.99649	 90.0	 1	    1.07778	    0.97778;
	41	 1	 0.0	 0.0	 0.0	 0.0	 1	    1.07634	  -30.83231	 225.0	 1	    1.08889	    1.00444;
	42	 1	 0.0	 0.0	 0.0	 0.0	 1	    1.13050	  -14.21373	 63.0	 1	    1.13099	    0.95238;
	43	 1	 3.2	 2.7	 0.0	 0.0	 1	    1.04447	  -32.30056	 90.0	 1	    1.07778	    0.97778;
	44	 1	 13.3	 0.1	 0.0	 0.0	 1	    1.02558	  -51.59533	 63.0	 1	    1.06349	    0.95238;
	45	 1	 3.8	 1.6	 0.0	 0.0	 1	    1.02770	  -35.45354	 90.0	 1	    1.06667	    0.97778;
	46	 1	 0.0	 0.0	 0.0	 0.0	 1	    1.05408	  -25.65168	 63.0	 1	    1.06349	    0.93651;
	47	 2	 0.0	 0.0	 0.0	 0.0	 1	    1.06349	  -23.14157	 63.0	 1	    1.06349	    0.93651;
	48	 1	 40.4	 5.6	 0.0	 0.0	 1	    1.03096	  -31.86240	 90.0	 1	    1.07778	    0.92222;
	49	 1	 9.8	 -1.9	 0.0	 0.0	 1	    1.03611	  -21.81589	 63.0	 1	    1.06349	    0.93651;
	50	 1	 0.0	 0.0	 0.0	 0.0	 1	    1.06255	  -30.61599	 63.0	 1	    1.06927	    0.93651;
	51	 1	 0.0	 0.0	 0.0	 0.0	 1	    1.05034	  -25.60330	 225.0	 1	    1.08889	    0.93333;
	52	 1	 6.5	 2.9	 0.0	 0.0	 1	    1.04185	  -37.46098	 90.0	 1	    1.06667	    0.97778;
	53	 1	 0.0	 -1.3	 0.0	 0.0	 1	    1.00640	  -33.81499	 63.0	 1	    1.04762	    0.95238;
	54	 1	 0.3	 -0.3	 0.0	 0.0	 1	    1.04156	  -18.73209	 90.0	 1	    1.06667	    0.97778;
	55	 1	 50.9	 12.3	 0.0	 0.0	 1	    1.08373	  -34.80230	 225.0	 1	    1.08889	    1.00444;
	56	 1	 75.5	 20.5	 0.0	 0.0	 1	    1.07705	  -31.55843	 225.0	 1	    1.08889	    1.00444;
	57	 2	 0.0	 0.0	 0.0	 0.0	 1	    1.06741	   -8.00365	 63.0	 1	    1.07937	    0.92063;
	58	 1	 154.0	 36.4	 0.0	 0.0	 1	    1.08359	  -34.81910	 225.0	 1	    1.08889	    1.00444;
	59	 1	 5.0	 1.0	 0.0	 0.0	 1	    1.00561	  -29.24046	 63.0	 1	    1.07937	    0.95238;
	60	 1	 0.0	 0.0	 0.0	 0.0	 1	    1.03886	  -23.85081	 63.0	 1	    1.07937	    0.95238;
	61	 1	 46.3	 11.9	 0.0	 0.0	 1	    1.00769	  -26.01700	 63.0	 1	    1.07937	    0.95238;
	62	 1	 0.0	 0.0	 0.0	 0.0	 1	    1.02212	  -24.02632	 63.0	 1	    1.07937	    0.95238;
	63	 1	 16.8	 2.9	 0.0	 0.0	 1	    1.01970	  -18.05366	 63.0	 1	    1.07937	    0.95238;
	64	 1	 67.3	 7.1	 0.0	 0.0	 1	    1.06838	  -24.19543	 225.0	 1	    1.08889	    0.88889;
	65	 1	 12.0	 2.8	 0.0	 0.0	 1	    1.01982	  -26.72646	 63.0	 1	    1.07937	    0.95238;
	66	 1	 13.0	 -6.4	 0.0	 0.0	 1	    1.03628	  -25.42886	 63.0	 1	    1.06349	    0.93651;
	67	 1	 1.0	 0.0	 0.0	 0.0	 1	    1.04066	  -16.25710	 63.0	 1	    1.07937	    0.92063;
	68	 1	 53.1	 1.1	 0.0	 0.0	 1	    1.02470	  -21.92122	 63.0	 1	    1.06349	    0.93651;
	69	 1	 20.8	 1.3	 0.0	 0.0	 1	    1.04401	  -56.50817	 63.0	 1	    1.06349	    0.95238;
	70	 1	 10.6	 4.2	 0.0	 0.0	 1	    1.03547	  -17.64270	 63.0	 1	    1.07937	    0.95238;
	71	 1	 69.4	 17.5	 0.0	 0.0	 1	    1.03937	  -34.59474	 63.0	 1	    1.04762	    0.95238;
	72	 1	 0.0	 0.0	 0.0	 0.0	 1	    1.08576	  -24.83300	 225.0	 1	    1.08889	    1.00444;
	73	 1	 0.0	 0.0	 0.0	 0.0	 1	    1.08576	  -24.83300	 225.0	 1	    1.08889	    1.00444;
	74	 1	 58.8	 -5.0	 0.0	 0.0	 1	    1.06893	  -24.07598	 225.0	 1	    1.08889	    0.88889;
	75	 1	 25.2	 1.9	 0.0	 0.0	 1	    1.05489	  -26.46491	 90.0	 1	    1.06667	    0.97778;
	76	 1	 5.9	 -2.1	 0.0	 0.0	 1	    1.08453	  -14.90534	 225.0	 1	    1.08889	    0.98667;
	77	 1	 43.7	 0.4	 0.0	 0.0	 1	    1.02278	  -23.91060	 63.0	 1	    1.06349	    0.93651;
	78	 1	 0.0	 0.0	 0.0	 0.0	 1	    1.02808	  -14.91427	 63.0	 1	    1.07937	    0.92063;
	79	 1	 0.0	 0.0	 0.0	 0.0	 1	    1.01223	  -33.06362	 63.0	 1	    1.04762	    0.95238;
	80	 1	 32.4	 10.5	 0.0	 0.0	 1	    1.05090	  -32.79663	 225.0	 1	    1.08889	    1.00444;
	81	 1	 32.4	 9.1	 0.0	 0.0	 1	    1.05092	  -32.79658	 225.0	 1	    1.08889	    1.00444;
	82	 1	 11.3	 0.3	 0.0	 0.0	 1	    1.04150	  -21.53118	 63.0	 1	    1.06349	    0.93651;
	83	 1	 79.0	 24.8	 0.0	 0.0	 1	    1.05953	  -31.99093	 225.0	 1	    1.08889	    1.00444;
	84	 1	 -0.1	 0.4	 0.0	 0.0	 1	    1.06002	  -14.93629	 63.0	 1	    1.06349	    0.93651;
	85	 1	 0.7	 -1.5	 0.0	 0.0	 1	    1.04798	  -13.16884	 63.0	 1	    1.06349	    0.93651;
	86	 1	 48.8	 5.2	 0.0	 0.0	 1	    1.02419	  -44.12093	 90.0	 1	    1.06667	    0.97778;
	87	 1	 0.0	 0.0	 0.0	 0.0	 1	    1.03030	  -18.61290	 63.0	 1	    1.07937	    0.95238;
	88	 1	 14.8	 -1.2	 0.0	 0.0	 1	    1.05358	  -18.29140	 63.0	 1	    1.06349	    0.93651;
	89	 1	 26.2	 0.3	 0.0	 0.0	 1	    1.03990	  -34.96889	 90.0	 1	    1.07778	    0.97778;
	90	 1	 0.2	 -2.3	 0.0	 0.0	 1	    0.96592	  -25.32925	 45.0	 1	    1.00000	    0.88889;
	91	 1	 0.0	 0.0	 0.0	 0.0	 1	    0.96529	  -24.76024	 45.0	 1	    1.00000	    0.88889;
	92	 1	 31.8	 1.1	 0.0	 0.0	 1	    1.03730	  -16.45685	 63.0	 1	    1.06349	    0.96825;
	93	 1	 2.0	 -2.8	 0.0	 0.0	 1	    0.97681	  -25.93119	 45.0	 1	    1.00000	    0.88889;
	94	 1	 18.2	 -4.0	 0.0	 0.0	 1	    1.04380	  -24.90662	 90.0	 1	    1.06667	    0.97778;
	95	 1	 57.2	 9.4	 0.0	 0.0	 1	    1.03696	  -36.99746	 90.0	 1	    1.06667	    0.97778;
	96	 1	 0.9	 -0.2	 0.0	 0.0	 1	    1.05819	  -26.01129	 63.0	 1	    1.06349	    0.93651;
	97	 1	 57.7	 3.8	 0.0	 0.0	 1	    1.06406	  -15.18144	 63.0	 1	    1.07937	    0.92063;
	98	 1	 9.5	 1.0	 0.0	 0.0	 1	    1.03567	  -27.13730	 63.0	 1	    1.07937	    0.95238;
	99	 1	 35.8	 5.9	 0.0	 0.0	 1	    1.01516	  -25.73370	 63.0	 1	    1.07937	    0.95238;
	100	 1	 63.0	 7.8	 0.0	 0.0	 1	    1.01669	  -31.43524	 63.0	 1	    1.06349	    0.93651;
	101	 1	 17.3	 -0.8	 0.0	 0.0	 1	    1.04899	  -15.57304	 63.0	 1	    1.06349	    0.93651;
	102	 2	 0.0	 0.0	 0.0	 0.0	 1	    1.05820	  -12.05074	 63.0	 1	    1.07937	    0.95238;
	103	 1	 12.6	 -1.2	 0.0	 0.0	 1	    1.02779	  -23.76665	 63.0	 1	    1.07937	    0.95238;
	104	 1	 0.0	 0.0	 0.0	 0.0	 1	    1.06097	  -20.90361	 225.0	 1	    1.08889	    0.98667;
	105	 1	 36.9	 2.2	 0.0	 0.0	 1	    1.05043	  -24.20325	 225.0	 1	    1.08889	    0.88889;
	106	 1	 58.2	 10.7	 0.0	 0.0	 1	    1.06111	  -28.90531	 90.0	 1	    1.10000	    0.94444;
	107	 1	 107.0	 14.3	 0.0	 0.0	 1	    1.04713	  -29.53253	 225.0	 1	    1.08444	    1.00889;
	108	 1	 12.2	 -2.4	 0.0	 0.0	 1	    1.05424	  -29.60712	 90.0	 1	    1.07778	    0.97778;
	109	 1	 67.8	 8.7	 0.0	 0.0	 1	    1.06081	  -17.89324	 63.0	 1	    1.06349	    0.93651;
	110	 1	 0.0	 0.0	 0.0	 0.0	 1	    1.04385	  -15.98815	 225.0	 1	    1.08889	    0.93333;
	111	 1	 38.7	 -7.5	 0.0	 0.0	 1	    1.03378	  -18.77716	 63.0	 1	    1.06349	    0.96825;
	112	 1	 0.0	 0.0	 0.0	 0.0	 1	    1.02509	  -32.42701	 63.0	 1	    1.04762	    0.95238;
	113	 1	 0.0	 0.0	 0.0	 0.0	 1	    1.05830	  -28.89611	 225.0	 1	    1.08889	    1.00444;
	114	 1	 13.4	 1.1	 0.0	 0.0	 1	    1.05346	  -30.49957	 63.0	 1	    1.06349	    0.93651;
	115	 1	 0.0	 0.0	 0.0	 0.0	 1	    1.08830	   -3.47303	 380.0	 1	    1.10526	    1.05263;
	116	 1	 0.0	 0.0	 0.0	 0.0	 1	    1.08830	   -3.47303	 380.0	 1	    1.10526	    1.05263;
	117	 1	 14.9	 0.2	 0.0	 0.0	 1	    1.02029	  -31.68457	 63.0	 1	    1.07937	    0.95238;
	118	 1	 2.0	 0.7	 0.0	 0.0	 1	    1.05725	  -26.15999	 90.0	 1	    1.06667	    0.97778;
	119	 1	 40.6	 6.9	 0.0	 0.0	 1	    1.00970	  -16.39060	 63.0	 1	    1.06349	    0.93651;
	120	 1	 22.0	 -2.3	 0.0	 0.0	 1	    1.06162	  -29.09839	 63.0	 1	    1.06349	    0.93651;
	121	 1	 20.8	 1.4	 0.0	 0.0	 1	    1.01982	  -21.05422	 63.0	 1	    1.07937	    0.92063;
	122	 2	 0.0	 0.0	 0.0	 0.0	 1	    1.03039	  -24.40200	 63.0	 1	    1.07937	    0.95238;
	123	 1	 12.0	 4.6	 0.0	 0.0	 1	    1.02704	  -24.57422	 63.0	 1	    1.07937	    0.95238;
	124	 1	 8.0	 -0.4	 0.0	 0.0	 1	    1.03841	  -25.66987	 90.0	 1	    1.06667	    0.97778;
	125	 1	 11.1	 0.4	 0.0	 0.0	 1	    1.06371	  -21.16139	 63.0	 1	    1.07937	    0.95238;
	126	 1	 0.2	 0.8	 0.0	 0.0	 1	    1.04597	  -11.63080	 63.0	 1	    1.06349	    0.93651;
	127	 1	 14.7	 2.7	 0.0	 0.0	 1	    1.02075	  -35.60019	 63.0	 1	    1.04762	    0.95238;
	128	 1	 13.8	 7.2	 0.0	 0.0	 1	    1.05143	   -8.99138	 63.0	 1	    1.06349	    0.96825;
	129	 1	 19.1	 10.8	 0.0	 0.0	 1	    1.05750	   -6.91712	 63.0	 1	    1.06349	    0.96825;
	130	 1	 0.0	 0.0	 0.0	 0.0	 1	    1.07727	   -7.29700	 225.0	 1	    1.08444	    1.00889;
	131	 1	 119.3	 12.0	 0.0	 0.0	 1	    1.07546	  -15.25570	 225.0	 1	    1.08444	    1.00889;
	132	 2	 9.4	 0.0	 0.0	 0.0	 1	    1.07738	   -6.79799	 90.0	 1	    1.07778	    0.92222;
	133	 1	 2.7	 0.4	 0.0	 0.0	 1	    0.99500	  -36.51832	 63.0	 1	    1.04762	    0.95238;
	134	 1	 101.1	 27.4	 0.0	 0.0	 1	    1.03729	  -33.29945	 225.0	 1	    1.08889	    1.00444;
	135	 1	 0.0	 0.0	 0.0	 0.0	 1	    1.08455	  -34.63040	 225.0	 1	    1.08889	    1.00444;
	136	 1	 23.9	 1.4	 0.0	 0.0	 1	    1.04473	  -42.14850	 90.0	 1	    1.07778	    0.97778;
	137	 2	 8.7	 -3.0	 0.0	 0.0	 1	    1.02988	  -16.24077	 63.0	 1	    1.06349	    0.96825;
	138	 1	 0.0	 0.0	 0.0	 0.0	 1	    1.06147	  -16.98660	 150.0	 1	    1.08000	    0.96667;
	139	 1	 8.0	 7.1	 0.0	 0.0	 1	    1.04749	   -7.27875	 63.0	 1	    1.07937	    0.92063;
	140	 1	 0.0	 0.0	 0.0	 80.0	 1	    1.07744	   -4.05723	 225.0	 1	    1.08889	    1.00000;
	141	 1	 0.0	 0.0	 0.0	 0.0	 1	    1.08880	   -0.81314	 380.0	 1	    1.10526	    1.05263;
	142	 1	 22.4	 7.4	 0.0	 0.0	 1	    1.00972	  -28.73099	 63.0	 1	    1.07937	    0.95238;
	143	 1	 0.0	 0.0	 0.0	 0.0	 1	    1.03819	  -23.90297	 225.0	 1	    1.08889	    0.98667;
	144	 1	 16.0	 5.0	 0.0	 0.0	 1	    1.05361	  -27.66208	 90.0	 1	    1.11111	    0.95556;
	145	 1	 23.4	 9.0	 0.0	 0.0	 1	    1.07002	  -23.89773	 225.0	 1	    1.08889	    0.96889;
	146	 1	 0.0	 0.0	 0.0	 0.0	 1	    1.08232	  -20.60324	 380.0	 1	    1.10526	    1.00000;
	147	 1	 30.0	 5.5	 0.0	 0.0	 1	    1.04203	  -29.51328	 63.0	 1	    1.06349	    0.93651;
	148	 1	 6.6	 1.2	 0.0	 0.0	 1	    1.05032	  -20.06375	 63.0	 1	    1.06349	    0.93651;
	149	 1	 16.9	 4.1	 0.0	 0.0	 1	    1.04794	  -36.68947	 90.0	 1	    1.06667	    0.97778;
	150	 1	 48.5	 3.2	 0.0	 0.0	 1	    1.05861	  -27.27632	 63.0	 1	    1.06349	    0.93651;
	151	 1	 0.0	 0.0	 0.0	 0.0	 1	    1.01186	  -21.83355	 63.0	 1	    1.06349	    0.96825;
	152	 1	 45.3	 12.0	 0.0	 7.7	 1	    1.01177	  -20.58037	 63.0	 1	    1.06349	    0.96825;
	153	 1	 27.3	 -5.5	 0.0	 0.0	 1	    1.04818	  -23.85952	 63.0	 1	    1.06349	    0.93651;
	154	 1	 0.0	 0.0	 0.0	 0.0	 1	    1.07098	  -20.05141	 225.0	 1	    1.08889	    0.93333;
	155	 2	 0.0	 0.0	 0.0	 0.0	 1	    1.02975	   -5.92634	 63.0	 1	    1.07937	    0.92063;
	156	 1	 0.0	 0.0	 0.0	 0.0	 1	    1.01182	  -21.83879	 63.0	 1	    1.06349	    0.96825;
	157	 1	 0.0	 -2.2	 0.0	 0.0	 1	    0.93824	  -27.63112	 45.0	 1	    1.00000	    0.88889;
	158	 2	 0.0	 0.0	 0.0	 0.0	 1	    0.98018	  -25.54825	 45.0	 1	    1.00000	    0.88889;
	159	 1	 0.0	 0.0	 0.0	 0.0	 1	    1.04516	  -29.68472	 63.0	 1	    1.06349	    0.93651;
	160	 1	 41.7	 5.9	 0.0	 0.0	 1	    1.05832	  -22.98266	 225.0	 1	    1.08889	    0.88889;
	161	 1	 43.7	 10.0	 0.0	 0.0	 1	    1.05814	  -22.98644	 225.0	 1	    1.08889	    0.88889;
	162	 1	 -0.3	 -1.6	 0.0	 0.0	 1	    1.04229	  -21.88785	 90.0	 1	    1.06667	    0.97778;
	163	 1	 0.0	 0.0	 0.0	 0.0	 1	    1.03201	  -24.65297	 63.0	 1	    1.07937	    0.95238;
	164	 1	 0.0	 0.0	 0.0	 0.0	 1	    1.03201	  -24.65297	 63.0	 1	    1.07937	    0.95238;
	165	 1	 16.5	 14.6	 0.0	 0.0	 1	    1.07366	  -31.92624	 20.0	 1	    1.15000	    0.80000;
	166	 1	 13.3	 3.2	 0.0	 0.0	 1	    1.04877	  -36.20869	 90.0	 1	    1.06667	    0.97778;
	167	 1	 17.8	 -0.8	 0.0	 0.0	 1	    1.04380	  -36.69402	 90.0	 1	    1.06667	    0.97778;
	168	 1	 0.0	 0.0	 0.0	 0.0	 1	    1.07379	  -31.91996	 225.0	 1	    1.08444	    1.00444;
	169	 1	 9.9	 -0.9	 0.0	 0.0	 1	    1.02852	  -28.30672	 90.0	 1	    1.06667	    0.97778;
	170	 1	 79.8	 13.5	 0.0	 0.0	 1	    1.04070	  -34.68655	 90.0	 1	    1.07778	    0.97778;
	171	 1	 28.0	 0.8	 0.0	 30.0	 1	    1.05551	  -38.61125	 90.0	 1	    1.07778	    0.97778;
	172	 1	 0.0	 0.0	 0.0	 0.0	 1	    1.06149	  -34.13388	 225.0	 1	    1.08889	    1.00444;
	173	 1	 28.5	 8.0	 0.0	 0.0	 1	    1.07335	  -25.72828	 90.0	 1	    1.08889	    0.93333;
	174	 1	 59.7	 11.6	 0.0	 0.0	 1	    1.07292	  -29.48307	 90.0	 1	    1.11111	    0.95556;
	175	 1	 0.0	 0.0	 0.0	 0.0	 1	    1.03261	   -5.49435	 63.0	 1	    1.07937	    0.92063;
	176	 2	 0.0	 0.0	 0.0	 0.0	 1	    1.07874	   -3.73598	 150.0	 1	    1.10000	    0.90000;
	177	 1	 0.0	 0.0	 0.0	 0.0	 1	    1.07661	  -32.08092	 225.0	 1	    1.08889	    1.00444;
	178	 1	 0.0	 0.0	 0.0	 0.0	 1	    1.07661	  -32.08092	 225.0	 1	    1.08889	    1.00444;
	179	 1	 0.0	 0.0	 0.0	 0.0	 1	    1.02095	  -35.58632	 63.0	 1	    1.04762	    0.95238;
	180	 1	 0.0	 0.0	 0.0	 0.0	 1	    1.07661	  -32.08091	 225.0	 1	    1.08889	    1.00444;
	181	 1	 12.7	 -5.3	 0.0	 0.0	 1	    1.05502	  -17.03262	 63.0	 1	    1.07937	    0.92063;
	182	 1	 16.0	 3.1	 0.0	 0.0	 1	    1.04344	  -16.39947	 63.0	 1	    1.06349	    0.93651;
	183	 1	 5.5	 -1.7	 0.0	 0.0	 1	    1.04051	  -28.56718	 63.0	 1	    1.07937	    0.95238;
	184	 1	 5.0	 1.4	 0.0	 0.0	 1	    1.07002	  -29.06510	 90.0	 1	    1.07778	    0.97778;
	185	 1	 30.6	 2.7	 0.0	 0.0	 1	    1.00109	  -29.65503	 63.0	 1	    1.07937	    0.95238;
	186	 1	 1.2	 0.2	 0.0	 0.0	 1	    1.03921	  -22.14044	 90.0	 1	    1.06667	    0.97778;
	187	 2	 0.0	 0.0	 0.0	 0.0	 1	    1.03965	   -8.37690	 63.0	 1	    1.07937	    0.92063;
	188	 1	 0.0	 0.0	 0.0	 0.0	 1	    1.08269	   -7.31182	 63.0	 1	    1.09875	    0.92063;
	189	 1	 16.8	 1.8	 0.0	 0.0	 1	    1.02597	  -13.12618	 63.0	 1	    1.07937	    0.92063;
	190	 2	 0.0	 0.0	 0.0	 0.0	 1	    0.96405	  -25.98655	 45.0	 1	    1.00000	    0.88889;
	191	 1	 15.4	 -1.1	 0.0	 0.0	 1	    1.02810	  -28.16608	 90.0	 1	    1.06667	    0.97778;
	192	 1	 9.9	 -0.0	 0.0	 0.0	 1	    1.06912	   -8.42251	 63.0	 1	    1.07937	    0.92063;
	193	 1	 0.1	 0.7	 0.0	 0.0	 1	    1.05855	  -29.41996	 225.0	 1	    1.08889	    1.00444;
	194	 2	 0.7	 -1.6	 0.0	 0.0	 1	    1.05443	  -13.96226	 63.0	 1	    1.07937	    0.92063;
	195	 1	 0.0	 0.0	 0.0	 0.0	 1	    1.06362	  -33.38943	 63.0	 1	    1.06362	    0.95238;
	196	 1	 0.0	 0.0	 0.0	 0.0	 1	    1.06362	  -33.38947	 63.0	 1	    1.06362	    0.95238;
	197	 1	 27.5	 -0.6	 0.0	 15.0	 1	    1.04748	  -21.32643	 63.0	 1	    1.07937	    0.92063;
	198	 1	 11.1	 -0.8	 0.0	 0.0	 1	    1.01930	  -14.05606	 63.0	 1	    1.07937	    0.92063;
	199	 1	 12.6	 2.7	 0.0	 0.0	 1	    1.03157	  -43.59686	 90.0	 1	    1.06667	    0.97778;
	200	 1	 0.0	 0.0	 0.0	 0.0	 1	    1.08786	  -10.31142	 225.0	 1	    1.08889	    1.00000;
	201	 1	 81.0	 25.6	 0.0	 0.0	 1	    1.04529	  -24.55607	 225.0	 1	    1.08889	    0.88889;
	202	 1	 49.8	 2.0	 0.0	 0.0	 1	    1.01848	  -27.48646	 63.0	 1	    1.06349	    0.96825;
	203	 1	 28.6	 3.7	 0.0	 0.0	 1	    1.07005	  -23.45260	 90.0	 1	    1.10000	    0.94444;
	204	 1	 0.0	 0.0	 0.0	 0.0	 1	    1.07309	  -20.14165	 225.0	 1	    1.08889	    0.96889;
	205	 1	 0.0	 0.0	 0.0	 0.0	 1	    1.08754	  -16.69667	 380.0	 1	    1.10526	    1.00000;
	206	 1	 54.4	 9.9	 0.0	 0.0	 1	    1.03049	  -24.67641	 63.0	 1	    1.06349	    0.96825;
	207	 1	 33.9	 4.5	 0.0	 0.0	 1	    1.02336	   -9.97988	 63.0	 1	    1.06349	    0.96825;
	208	 1	 16.6	 -0.8	 0.0	 0.0	 1	    1.03866	  -29.95982	 90.0	 1	    1.07778	    0.97778;
	209	 1	 2.2	 1.1	 0.0	 0.0	 1	    1.04740	  -17.03601	 63.0	 1	    1.06349	    0.96825;
	210	 1	 41.5	 6.3	 0.0	 0.0	 1	    1.02444	  -13.71683	 63.0	 1	    1.06349	    0.96825;
	211	 1	 32.5	 14.0	 0.0	 0.0	 1	    1.02437	  -13.58507	 63.0	 1	    1.06349	    0.96825;
	212	 1	 0.0	 0.0	 0.0	 0.0	 1	    1.07019	  -13.52074	 225.0	 1	    1.08444	    1.00889;
	213	 1	 0.0	 0.0	 0.0	 0.0	 1	    1.07008	  -13.50886	 225.0	 1	    1.08444	    1.00889;
	214	 1	 43.1	 4.5	 0.0	 30.4	 1	    1.06229	  -38.49199	 90.0	 1	    1.07778	    0.97778;
	215	 1	 0.0	 0.0	 0.0	 0.0	 1	    1.06416	  -34.46594	 225.0	 1	    1.08889	    1.00444;
	216	 1	 21.1	 -3.5	 0.0	 0.0	 1	    1.01120	  -20.99929	 63.0	 1	    1.06349	    0.95238;
	217	 1	 31.1	 2.7	 0.0	 0.0	 1	    1.01754	  -31.45833	 90.0	 1	    1.06667	    0.97778;
	218	 1	 3.3	 -0.4	 0.0	 0.0	 1	    1.04140	  -18.72374	 90.0	 1	    1.06667	    0.97778;
	219	 1	 11.1	 -4.9	 0.0	 0.0	 1	    1.05254	  -25.66526	 90.0	 1	    1.06667	    0.97778;
	220	 1	 14.8	 3.5	 0.0	 0.0	 1	    1.03273	  -17.76910	 63.0	 1	    1.07937	    0.95238;
	221	 1	 13.0	 -6.8	 0.0	 0.0	 1	    1.03949	  -14.16086	 63.0	 1	    1.06349	    0.93651;
	222	 1	 0.0	 0.0	 0.0	 0.0	 1	    1.08544	   -9.91717	 225.0	 1	    1.08975	    0.93333;
	223	 1	 42.4	 2.2	 0.0	 0.0	 1	    1.02639	  -16.58321	 63.0	 1	    1.07937	    0.92063;
	224	 2	 0.0	 0.0	 0.0	 0.0	 1	    1.07869	   -3.73501	 150.0	 1	    1.10000	    0.90000;
	225	 1	 76.8	 16.6	 0.0	 0.0	 1	    1.08143	  -12.99315	 225.0	 1	    1.08444	    1.00889;
	226	 1	 77.8	 71.5	 0.0	 0.0	 1	    1.08057	  -12.98552	 225.0	 1	    1.08444	    1.00889;
	227	 1	 5.0	 -1.9	 0.0	 0.0	 1	    1.01766	  -59.57134	 63.0	 1	    1.06349	    0.95238;
	228	 1	 10.9	 -2.0	 0.0	 0.0	 1	    1.01361	  -60.10314	 63.0	 1	    1.06349	    0.95238;
	229	 1	 12.0	 -5.0	 0.0	 0.0	 1	    1.05999	  -12.76905	 63.0	 1	    1.07937	    0.92063;
	230	 1	 0.0	 0.0	 0.0	 0.0	 1	    1.08283	  -13.30806	 225.0	 1	    1.08889	    0.97778;
	231	 1	 7.0	 -1.4	 0.0	 0.0	 1	    1.03258	  -27.02692	 90.0	 1	    1.06667	    0.97778;
	232	 1	 7.2	 0.1	 0.0	 0.0	 1	    1.06261	  -15.35703	 90.0	 1	    1.08889	    0.93333;
	233	 1	 0.0	 0.0	 0.0	 0.0	 1	    1.04559	  -24.49299	 20.0	 1	    1.15000	    0.80000;
	234	 1	 24.7	 8.1	 0.0	 0.0	 1	    1.04559	  -24.49299	 90.0	 1	    1.08889	    0.93333;
	235	 1	 17.7	 3.3	 0.0	 0.0	 1	    1.05417	  -20.73990	 225.0	 1	    1.08889	    0.88889;
	236	 1	 28.6	 1.0	 0.0	 0.0	 1	    1.04691	  -30.32504	 90.0	 1	    1.07778	    0.92222;
	237	 1	 43.7	 5.2	 0.0	 0.0	 1	    1.05013	  -28.11282	 63.0	 1	    1.06349	    0.93651;
	238	 1	 25.2	 -1.7	 0.0	 0.0	 1	    1.05603	  -26.05095	 90.0	 1	    1.06667	    0.97778;
	239	 1	 53.9	 4.3	 0.0	 0.0	 1	    1.02768	  -60.59420	 63.0	 1	    1.06349	    0.95238;
	240	 1	 51.1	 9.5	 0.0	 0.0	 1	    1.02814	  -14.91046	 63.0	 1	    1.07937	    0.92063;
	241	 1	 56.7	 9.4	 0.0	 0.0	 1	    1.01318	  -19.04499	 90.0	 1	    1.07778	    0.92222;
	242	 1	 56.2	 8.6	 0.0	 0.0	 1	    1.02360	  -23.63373	 63.0	 1	    1.06349	    0.96825;
	243	 1	 26.7	 -2.3	 0.0	 0.0	 1	    1.01350	  -19.33703	 63.0	 1	    1.07937	    0.92063;
	244	 1	 58.0	 3.7	 0.0	 0.0	 1	    1.05718	   -7.80064	 90.0	 1	    1.07778	    0.92222;
	245	 1	 13.7	 -2.2	 0.0	 0.0	 1	    1.02670	  -22.49916	 63.0	 1	    1.07937	    0.92063;
	246	 2	 13.7	 7.5	 0.0	 0.0	 1	    1.03112	  -25.02877	 63.0	 1	    1.06349	    0.93651;
	247	 1	 0.0	 0.0	 0.0	 0.0	 1	    1.06378	  -23.44584	 225.0	 1	    1.08889	    0.93333;
	248	 1	 33.4	 13.1	 0.0	 0.0	 1	    1.07582	  -31.81193	 225.0	 1	    1.08889	    1.00444;
	249	 1	 26.1	 0.9	 0.0	 0.0	 1	    1.03228	  -19.44553	 63.0	 1	    1.07937	    0.92063;
	250	 1	 27.4	 -9.4	 0.0	 0.0	 1	    1.01857	  -32.07878	 63.0	 1	    1.07937	    0.95238;
	251	 1	 10.6	 3.5	 0.0	 0.0	 1	    1.03989	  -35.38764	 90.0	 1	    1.06667	    0.97778;
	252	 1	 9.6	 -1.8	 0.0	 0.0	 1	    1.03740	  -23.05236	 90.0	 1	    1.06667	    0.97778;
	253	 1	 54.1	 5.3	 0.0	 0.0	 1	    1.03941	  -27.71534	 63.0	 1	    1.07937	    0.95238;
	254	 1	 20.0	 1.9	 0.0	 0.0	 1	    1.04017	  -31.10067	 63.0	 1	    1.07937	    0.95238;
	255	 1	 9.5	 -0.2	 0.0	 0.0	 1	    1.02752	  -17.71703	 63.0	 1	    1.06349	    0.93651;
	256	 2	 1.8	 0.0	 0.0	 0.0	 1	    1.07091	   -8.46520	 63.0	 1	    1.07937	    0.92063;
	257	 1	 0.0	 0.0	 0.0	 0.0	 1	    1.08889	  -10.48888	 225.0	 1	    1.08889	    1.00000;
	258	 2	 -0.0	 0.0	 0.0	 0.0	 1	    1.07211	   -5.41102	 90.0	 1	    1.07778	    0.92222;
	259	 1	 33.0	 -2.2	 0.0	 0.0	 1	    1.04572	  -24.56401	 63.0	 1	    1.07937	    0.95238;
	260	 1	 0.0	 0.0	 0.0	 0.0	 1	    1.07556	  -22.34935	 225.0	 1	    1.08889	    0.98667;
	261	 2	 0.0	 0.0	 0.0	 0.0	 1	    1.05447	  -16.34577	 63.0	 1	    1.07937	    0.92063;
	262	 1	 0.0	 0.0	 0.0	 80.0	 1	    1.06378	  -22.33671	 225.0	 1	    1.08889	    0.88889;
	263	 1	 0.0	 0.0	 0.0	 0.0	 1	    1.05261	  -23.58455	 225.0	 1	    1.08889	    0.88889;
	264	 1	 0.0	 0.0	 0.0	 0.0	 1	    1.06860	  -18.98859	 380.0	 1	    1.10526	    1.01316;
	265	 1	 0.0	 0.0	 0.0	 0.0	 1	    0.99981	  -34.81729	 63.0	 1	    1.04762	    0.95238;
	266	 1	 32.5	 7.6	 0.0	 0.0	 1	    1.07091	  -31.76334	 225.0	 1	    1.08889	    1.00444;
	267	 1	 66.3	 12.7	 0.0	 0.0	 1	    1.05031	  -32.98789	 225.0	 1	    1.08889	    1.00444;
	268	 1	 12.2	 10.9	 0.0	 0.0	 1	    1.01811	  -13.78586	 63.0	 1	    1.07937	    0.92063;
	269	 1	 23.2	 1.1	 0.0	 0.0	 1	    1.02676	  -20.23481	 63.0	 1	    1.07937	    0.92063;
	270	 1	 0.0	 0.0	 0.0	 0.0	 1	    1.07243	   -8.53794	 225.0	 1	    1.08889	    0.97778;
	271	 1	 0.0	 0.0	 0.0	 0.0	 1	    1.07243	   -8.53849	 225.0	 1	    1.08889	    0.97778;
	272	 1	 45.8	 4.3	 0.0	 0.0	 1	    1.04668	  -13.52871	 63.0	 1	    1.06349	    0.96825;
	273	 1	 28.5	 3.5	 0.0	 0.0	 1	    1.06909	   -9.34451	 225.0	 1	    1.08444	    1.00889;
	274	 1	 54.5	 9.1	 0.0	 0.0	 1	    1.07343	  -29.37742	 90.0	 1	    1.10000	    0.94444;
	275	 1	 0.0	 0.0	 0.0	 0.0	 1	    1.08288	  -26.76694	 225.0	 1	    1.08444	    1.00444;
	276	 1	 0.0	 0.0	 0.0	 0.0	 1	    1.10044	  -20.88508	 380.0	 1	    1.10263	    1.04211;
	277	 1	 3.7	 2.3	 0.0	 0.0	 1	    1.05232	  -29.69934	 90.0	 1	    1.06667	    0.97778;
	278	 1	 1.5	 4.6	 0.0	 0.0	 1	    1.08255	  -26.82478	 225.0	 1	    1.08444	    1.00444;
	279	 1	 11.0	 -2.1	 0.0	 0.0	 1	    1.01424	  -38.65849	 63.0	 1	    1.06349	    0.93651;
	280	 1	 44.0	 14.3	 0.0	 0.0	 1	    1.04417	  -37.00679	 90.0	 1	    1.07778	    0.97778;
	281	 1	 12.8	 0.9	 0.0	 0.0	 1	    1.03524	  -25.43506	 63.0	 1	    1.07937	    0.95238;
	282	 2	 0.0	 0.0	 0.0	 0.0	 1	    1.03112	  -25.02879	 63.0	 1	    1.06349	    0.93651;
	283	 1	 12.1	 -0.2	 0.0	 0.0	 1	    1.03578	  -37.25798	 90.0	 1	    1.06667	    0.97778;
	284	 1	 16.8	 4.6	 0.0	 0.0	 1	    1.02550	  -16.79449	 63.0	 1	    1.07937	    0.95238;
	285	 1	 -1.7	 4.6	 0.0	 0.0	 1	    1.07795	  -31.38635	 225.0	 1	    1.08889	    1.00444;
	286	 1	 32.2	 20.5	 0.0	 0.0	 1	    1.07777	  -31.40128	 225.0	 1	    1.08889	    1.00444;
	287	 1	 35.7	 -2.3	 0.0	 0.0	 1	    1.04076	  -26.01828	 90.0	 1	    1.06667	    0.97778;
	288	 1	 36.8	 -2.8	 0.0	 0.0	 1	    1.04695	  -29.58501	 90.0	 1	    1.06667	    0.97778;
	289	 1	 43.6	 9.7	 0.0	 0.0	 1	    1.08281	  -14.56507	 225.0	 1	    1.08889	    0.88889;
	290	 1	 7.3	 3.7	 0.0	 0.0	 1	    1.07410	  -24.29458	 90.0	 1	    1.11111	    0.95556;
	291	 1	 15.8	 0.3	 0.0	 0.0	 1	    1.02041	  -17.37279	 63.0	 1	    1.07937	    0.92063;
	292	 1	 1.0	 0.5	 0.0	 0.0	 1	    1.04171	  -21.24920	 63.0	 1	    1.06349	    0.93651;
	293	 1	 45.4	 2.3	 0.0	 0.0	 1	    1.04177	  -21.24602	 63.0	 1	    1.06349	    0.93651;
	294	 1	 0.0	 -0.9	 0.0	 0.0	 1	    1.01651	  -28.35816	 63.0	 1	    1.07937	    0.95238;
	295	 1	 23.4	 4.5	 0.0	 0.0	 1	    1.05660	  -24.56768	 225.0	 1	    1.08889	    0.88889;
	296	 1	 6.9	 0.3	 0.0	 0.0	 1	    1.04175	  -23.82746	 63.0	 1	    1.07937	    0.95238;
	297	 1	 2.0	 -0.5	 0.0	 0.0	 1	    1.01557	  -23.72476	 63.0	 1	    1.06349	    0.93651;
	298	 1	 13.9	 -0.0	 0.0	 0.0	 1	    1.03382	  -11.67965	 63.0	 1	    1.06349	    0.93651;
	299	 1	 0.0	 0.1	 0.0	 0.0	 1	    1.06753	  -21.65464	 90.0	 1	    1.11111	    0.95556;
	300	 1	 53.5	 16.6	 0.0	 0.0	 1	    1.07050	  -19.03480	 225.0	 1	    1.08889	    0.88889;
	301	 1	 3.0	 0.3	 0.0	 0.0	 1	    1.01898	  -10.87994	 63.0	 1	    1.06349	    0.96825;
	302	 1	 16.3	 3.5	 0.0	 0.0	 1	    1.03493	  -18.83570	 63.0	 1	    1.06349	    0.93651;
	303	 1	 42.3	 12.0	 0.0	 0.0	 1	    1.02019	  -23.93152	 63.0	 1	    1.07937	    0.92063;
	304	 1	 36.7	 -0.5	 0.0	 0.0	 1	    1.02834	  -20.85104	 63.0	 1	    1.06349	    0.96825;
	305	 2	 0.0	 0.0	 0.0	 0.0	 1	    1.06349	  -17.05265	 63.0	 1	    1.06349	    0.93651;
	306	 1	 14.5	 -1.1	 0.0	 0.0	 1	    1.03271	  -25.94680	 63.0	 1	    1.07937	    0.95238;
	307	 1	 21.4	 -2.4	 0.0	 0.0	 1	    1.01364	  -44.37876	 90.0	 1	    1.06667	    0.97778;
	308	 1	 0.6	 0.2	 0.0	 0.0	 1	    1.05547	  -13.20837	 63.0	 1	    1.07937	    0.92063;
	309	 1	 7.0	 2.5	 0.0	 0.0	 1	    1.05608	  -27.59708	 63.0	 1	    1.06349	    0.96825;
	310	 1	 13.0	 4.5	 0.0	 0.0	 1	    1.05623	  -27.62552	 63.0	 1	    1.06349	    0.96825;