%%%%%%%%%%%%%%%%%%%%%%%%%%%%%%%%%%%%%%%%%%%%%%%%%%%%%%%%%%%%%%%%%%%%%%%%%%%
%%%%                                                                  %%%%%
%%%%    IEEE PES Power Grid Library - Optimal Power Flow - v17.07     %%%%%
%%%%          (https://github.com/power-grid-lib/pglib-opf)           %%%%%
%%%%               Benchmark Group - Typical Operations               %%%%%
%%%%                         26 - June - 2017                         %%%%%
%%%%                                                                  %%%%%
%%%%%%%%%%%%%%%%%%%%%%%%%%%%%%%%%%%%%%%%%%%%%%%%%%%%%%%%%%%%%%%%%%%%%%%%%%%
%
%   Power flow data for Polish system - summer 2004 off-peak.
%   Please see CASEFORMAT for details on the case file format.
%
%   This case represents the Polish 400, 220 and 110 kV networks during
%   summer 2004 off-peak conditions. Multiple centrally dispatchable
%   generators at a bus have not been aggregated. Generators that are
%   not centrally dispatchable in the Polish energy market are given a
%   cost of zero.
%
%   Copyright (c) 2010 by Roman Korab <roman.korab@polsl.pl>
%   Licensed under the Creative Commons Attribution 4.0
%   International license, http://creativecommons.org/licenses/by/4.0/
%
function mpc = pglib_opf_case2737sop_mp
mpc.version = '2';
mpc.baseMVA = 100.0;

%% area data
%	area	refbus
mpc.areas = [
	1	 18;
];

%% bus data
%	bus_i	type	Pd	Qd	Gs	Bs	area	Vm	Va	baseKV	zone	Vmax	Vmin
mpc.bus = [
	1	 1	 0.0	 0.0	 0.0	 0.0	 1	    1.09902	    1.47008	 220.0	 1	    1.11000	    0.95000;
	2	 1	 0.0	 0.0	 0.0	 0.0	 1	    1.10641	    0.39010	 220.0	 1	    1.11000	    0.95000;
	3	 1	 0.0	 0.0	 0.0	 0.0	 1	    1.08148	  -14.25679	 220.0	 1	    1.11000	    0.95000;
	4	 1	 0.0	 0.0	 0.0	 0.0	 1	    1.09807	   -1.89143	 220.0	 1	    1.11000	    0.95000;
	5	 1	 0.0	 0.0	 0.0	 0.0	 1	    1.09808	   -1.88728	 220.0	 1	    1.11000	    0.95000;
	6	 1	 0.0	 0.0	 0.0	 0.0	 1	    1.07808	   -9.03310	 220.0	 1	    1.11000	    0.95000;
	7	 1	 0.0	 0.0	 0.0	 0.0	 1	    1.07817	   -9.03048	 220.0	 1	    1.11000	    0.95000;
	8	 1	 0.0	 0.0	 0.0	 -50.0	 1	    1.04221	   -7.03518	 400.0	 1	    1.05000	    0.95000;
	9	 1	 0.0	 0.0	 0.0	 0.0	 1	    1.04224	   -7.03480	 400.0	 1	    1.05000	    0.95000;
	10	 1	 0.0	 0.0	 0.0	 0.0	 1	    1.07134	   -8.62443	 220.0	 1	    1.11000	    0.95000;
	11	 1	 0.0	 0.0	 0.0	 0.0	 1	    1.07131	   -8.62794	 220.0	 1	    1.11000	    0.95000;
	12	 1	 0.0	 0.0	 0.0	 0.0	 1	    1.07131	   -8.62512	 220.0	 1	    1.11000	    0.95000;
	13	 1	 0.0	 0.0	 0.0	 0.0	 1	    1.07129	   -8.63198	 220.0	 1	    1.11000	    0.95000;
	14	 1	 0.0	 0.0	 0.0	 -50.0	 1	    1.03623	   -6.00800	 400.0	 1	    1.05000	    0.95000;
	15	 1	 0.0	 0.0	 0.0	 0.0	 1	    1.05000	   -8.42442	 400.0	 1	    1.05000	    0.95000;
	16	 1	 0.0	 0.0	 0.0	 0.0	 1	    1.05000	   -8.42442	 400.0	 1	    1.05000	    0.95000;
	17	 1	 0.0	 0.0	 0.0	 0.0	 1	    1.07530	  -12.20325	 220.0	 1	    1.11000	    0.95000;
	18	 1	 0.0	 0.0	 0.0	 0.0	 1	    1.07525	  -12.20281	 220.0	 1	    1.11000	    0.95000;
	19	 1	 0.0	 0.0	 0.0	 0.0	 1	    1.10084	   -1.32749	 220.0	 1	    1.11000	    0.95000;
	20	 1	 0.0	 0.0	 0.0	 0.0	 1	    1.10086	   -1.33246	 220.0	 1	    1.11000	    0.95000;
	21	 1	 0.0	 0.0	 0.0	 0.0	 1	    1.08232	   -8.59762	 220.0	 1	    1.11000	    0.95000;
	22	 1	 0.0	 0.0	 0.0	 0.0	 1	    1.08232	   -8.59762	 220.0	 1	    1.11000	    0.95000;
	23	 1	 0.0	 0.0	 0.0	 0.0	 1	    1.06873	   -8.67537	 220.0	 1	    1.11000	    0.95000;
	24	 1	 0.0	 0.0	 0.0	 0.0	 1	    1.10263	   -0.98803	 220.0	 1	    1.11000	    0.95000;
	25	 1	 0.0	 0.0	 0.0	 -50.0	 1	    1.03835	   -8.85100	 400.0	 1	    1.05000	    0.95000;
	26	 2	 48.178	 65.087	 0.0	 0.0	 1	    1.10841	    1.80775	 220.0	 1	    1.11000	    0.95000;
	27	 2	 28.145	 35.087	 0.0	 0.0	 1	    1.10753	    0.36977	 220.0	 1	    1.11000	    0.95000;
	28	 3	 0.0	 0.0	 0.0	 0.0	 1	    1.04498	    0.00000	 400.0	 1	    1.05000	    0.95000;
	29	 2	 44.698	 72.0	 0.0	 0.0	 1	    1.04498	    0.00869	 400.0	 1	    1.05000	    0.95000;
	30	 1	 0.0	 0.0	 0.0	 0.0	 1	    1.07648	   -8.74510	 220.0	 1	    1.11000	    0.95000;
	31	 1	 0.0	 0.0	 0.0	 0.0	 1	    1.04650	   -0.96283	 400.0	 1	    1.05000	    0.95000;
	32	 1	 0.0	 0.0	 0.0	 0.0	 1	    1.06914	   -8.77910	 220.0	 1	    1.11000	    0.95000;
	33	 1	 0.0	 0.0	 0.0	 0.0	 1	    1.09946	   -3.17529	 220.0	 1	    1.11000	    0.95000;
	34	 1	 0.0	 0.0	 0.0	 0.0	 1	    1.11000	   -5.31377	 220.0	 2	    1.11000	    0.95000;
	35	 1	 0.0	 0.0	 0.0	 0.0	 1	    1.08056	   -6.11544	 220.0	 2	    1.11000	    0.95000;
	36	 1	 0.0	 0.0	 0.0	 0.0	 1	    1.09704	   -5.66614	 220.0	 2	    1.11000	    0.95000;
	37	 1	 0.0	 0.0	 0.0	 0.0	 1	    1.09700	   -5.66764	 220.0	 2	    1.11000	    0.95000;
	38	 1	 0.0	 0.0	 0.0	 0.0	 1	    1.10027	   -5.55760	 220.0	 2	    1.11000	    0.95000;
	39	 1	 0.0	 0.0	 0.0	 0.0	 1	    1.10712	   -5.72125	 220.0	 2	    1.11000	    0.95000;
	40	 1	 0.0	 0.0	 0.0	 0.0	 1	    1.10706	   -5.72420	 220.0	 2	    1.11000	    0.95000;
	41	 1	 0.0	 0.0	 0.0	 0.0	 1	    1.03891	   -5.62621	 400.0	 2	    1.05000	    0.95000;
	42	 2	 13.0	 0.0	 0.0	 0.0	 1	    1.08433	   -5.41016	 220.0	 2	    1.11000	    0.95000;
	43	 2	 13.0	 0.0	 0.0	 0.0	 1	    1.08436	   -5.40113	 220.0	 2	    1.11000	    0.95000;
	44	 2	 25.0	 0.0	 0.0	 0.0	 1	    1.04949	   -5.47022	 400.0	 2	    1.05000	    0.95000;
	45	 1	 0.0	 0.0	 0.0	 0.0	 1	    1.04951	   -5.46983	 400.0	 2	    1.05000	    0.95000;
	46	 1	 0.0	 0.0	 0.0	 0.0	 1	    1.10662	   -6.01059	 220.0	 2	    1.11000	    0.95000;
	47	 1	 0.0	 0.0	 0.0	 0.0	 1	    1.03879	   -8.21327	 400.0	 2	    1.05000	    0.95000;
	48	 1	 0.0	 0.0	 0.0	 0.0	 1	    1.03880	   -8.21748	 400.0	 2	    1.05000	    0.95000;
	49	 1	 0.0	 0.0	 0.0	 0.0	 1	    1.04663	   -5.36555	 400.0	 2	    1.05000	    0.95000;
	50	 1	 0.0	 0.0	 0.0	 0.0	 1	    1.10035	   -4.98720	 220.0	 2	    1.11000	    0.95000;
	51	 1	 0.0	 0.0	 0.0	 0.0	 1	    1.10033	   -4.98463	 220.0	 2	    1.11000	    0.95000;
	52	 1	 0.0	 0.0	 0.0	 0.0	 1	    1.04780	   -5.94915	 400.0	 2	    1.05000	    0.95000;
	53	 1	 0.0	 0.0	 0.0	 0.0	 1	    1.04779	   -5.94831	 400.0	 2	    1.05000	    0.95000;
	54	 1	 0.0	 0.0	 0.0	 0.0	 1	    1.09777	   -5.37077	 220.0	 2	    1.11000	    0.95000;
	55	 2	 13.0	 0.0	 0.0	 0.0	 1	    1.09774	   -5.36404	 220.0	 2	    1.11000	    0.95000;
	56	 2	 13.0	 0.0	 0.0	 0.0	 1	    1.04594	   -5.52238	 400.0	 2	    1.05000	    0.95000;
	57	 2	 13.0	 0.0	 0.0	 0.0	 1	    1.04593	   -5.52587	 400.0	 2	    1.05000	    0.95000;
	58	 2	 67.882	 25.273	 0.0	 0.0	 1	    1.09017	   -5.61306	 220.0	 2	    1.11000	    0.95000;
	59	 1	 0.0	 0.0	 0.0	 0.0	 1	    1.09024	   -5.61056	 220.0	 2	    1.11000	    0.95000;
	60	 1	 0.0	 0.0	 0.0	 0.0	 1	    1.10325	   -6.09017	 220.0	 2	    1.11000	    0.95000;
	61	 1	 0.0	 0.0	 0.0	 0.0	 1	    1.08984	   -5.85946	 220.0	 2	    1.11000	    0.95000;
	62	 1	 0.0	 0.0	 0.0	 0.0	 1	    1.08980	   -5.85941	 220.0	 2	    1.11000	    0.95000;
	63	 1	 0.0	 0.0	 0.0	 0.0	 1	    1.03752	   -6.37529	 400.0	 2	    1.05000	    0.95000;
	64	 1	 0.0	 0.0	 0.0	 0.0	 1	    1.03755	   -6.38334	 400.0	 2	    1.05000	    0.95000;
	65	 1	 0.0	 224.802	 0.0	 0.0	 1	    1.04966	   -6.35813	 750.0	 2	    1.05000	    0.90000;
	66	 1	 0.0	 0.0	 0.0	 0.0	 1	    1.10117	   -5.87646	 220.0	 2	    1.11000	    0.95000;
	67	 1	 0.0	 0.0	 0.0	 0.0	 1	    1.10182	   -5.78610	 220.0	 2	    1.11000	    0.95000;
	68	 1	 0.0	 0.0	 0.0	 0.0	 1	    1.09693	   -4.47773	 220.0	 2	    1.11000	    0.95000;
	69	 1	 0.0	 0.0	 0.0	 0.0	 1	    1.09999	   -3.26229	 220.0	 3	    1.11000	    0.95000;
	70	 1	 0.0	 0.0	 0.0	 0.0	 1	    1.10080	   -6.25053	 220.0	 3	    1.11000	    0.95000;
	71	 1	 0.0	 0.0	 0.0	 0.0	 1	    1.10080	   -6.24919	 220.0	 3	    1.11000	    0.95000;
	72	 1	 0.0	 0.0	 0.0	 0.0	 1	    1.08638	   -6.14594	 220.0	 3	    1.11000	    0.95000;
	73	 1	 0.0	 0.0	 0.0	 0.0	 1	    1.08639	   -6.13401	 220.0	 3	    1.11000	    0.95000;
	74	 1	 0.0	 0.0	 0.0	 0.0	 1	    1.09514	   -5.12220	 220.0	 3	    1.11000	    0.95000;
	75	 1	 0.0	 0.0	 0.0	 0.0	 1	    1.09511	   -5.12352	 220.0	 3	    1.11000	    0.95000;
	76	 1	 0.0	 0.0	 0.0	 0.0	 1	    1.08127	   -9.78702	 220.0	 3	    1.11000	    0.95000;
	77	 1	 0.0	 0.0	 0.0	 0.0	 1	    1.08126	   -9.79033	 220.0	 3	    1.11000	    0.95000;
	78	 2	 27.0	 70.0	 0.0	 0.0	 1	    1.08788	   -5.32345	 220.0	 3	    1.11000	    0.95000;
	79	 2	 9.0	 21.0	 0.0	 0.0	 1	    1.08838	   -5.90828	 220.0	 3	    1.11000	    0.95000;
	80	 1	 4.602	 0.91	 0.0	 0.0	 1	    1.08735	   -6.00750	 220.0	 3	    1.11000	    0.95000;
	81	 1	 0.0	 0.0	 0.0	 0.0	 1	    1.08735	   -6.00769	 220.0	 3	    1.11000	    0.95000;
	82	 2	 18.0	 57.0	 0.0	 0.0	 1	    1.03881	   -2.38992	 400.0	 3	    1.05000	    0.95000;
	83	 1	 0.0	 0.0	 0.0	 0.0	 1	    1.10793	   -4.24849	 220.0	 3	    1.11000	    0.95000;
	84	 1	 0.0	 0.0	 0.0	 0.0	 1	    1.09164	   -5.82591	 220.0	 3	    1.11000	    0.95000;
	85	 1	 0.0	 0.0	 0.0	 0.0	 1	    1.09160	   -5.82724	 220.0	 3	    1.11000	    0.95000;
	86	 1	 32.969	 -8.4	 0.0	 0.0	 1	    1.10063	   -3.40731	 220.0	 3	    1.11000	    0.95000;
	87	 1	 0.0	 0.0	 0.0	 0.0	 1	    1.10063	   -3.41182	 220.0	 3	    1.11000	    0.95000;
	88	 1	 0.0	 0.0	 0.0	 0.0	 1	    1.08660	   -5.36980	 220.0	 3	    1.11000	    0.95000;
	89	 1	 0.0	 0.0	 0.0	 0.0	 1	    1.08658	   -5.37020	 220.0	 3	    1.11000	    0.95000;
	90	 1	 0.0	 0.0	 0.0	 0.0	 1	    1.10045	   -3.03678	 220.0	 3	    1.11000	    0.95000;
	91	 1	 0.0	 0.0	 0.0	 0.0	 1	    1.10046	   -3.04027	 220.0	 3	    1.11000	    0.95000;
	92	 1	 0.0	 0.0	 0.0	 0.0	 1	    1.04865	   -1.71556	 400.0	 3	    1.05000	    0.95000;
	93	 1	 0.0	 0.0	 0.0	 0.0	 1	    1.04864	   -1.71657	 400.0	 3	    1.05000	    0.95000;
	94	 1	 0.0	 0.0	 0.0	 0.0	 1	    1.08998	   -5.46837	 220.0	 3	    1.11000	    0.95000;
	95	 1	 0.0	 0.0	 0.0	 0.0	 1	    1.09000	   -5.47333	 220.0	 3	    1.11000	    0.95000;
	96	 1	 0.0	 0.0	 0.0	 0.0	 1	    1.10071	   -4.68910	 220.0	 3	    1.11000	    0.95000;
	97	 1	 0.0	 0.0	 0.0	 0.0	 1	    1.10075	   -4.68689	 220.0	 3	    1.11000	    0.95000;
	98	 2	 9.938	 2.19	 0.0	 0.0	 1	    1.09120	   -5.56640	 220.0	 3	    1.11000	    0.95000;
	99	 1	 16.652	 3.293	 0.0	 0.0	 1	    1.09122	   -5.56398	 220.0	 3	    1.11000	    0.95000;
	100	 1	 0.0	 0.0	 0.0	 0.0	 1	    1.10078	   -6.24903	 220.0	 3	    1.11000	    0.95000;
	101	 1	 0.0	 0.0	 0.0	 0.0	 1	    1.10078	   -6.25037	 220.0	 3	    1.11000	    0.95000;
	102	 1	 0.0	 0.0	 0.0	 0.0	 1	    1.08190	   -9.21409	 220.0	 3	    1.11000	    0.95000;
	103	 1	 0.0	 0.0	 0.0	 0.0	 1	    1.08190	   -9.20371	 220.0	 3	    1.11000	    0.95000;
	104	 2	 14.0	 40.0	 0.0	 0.0	 1	    1.09242	   -5.83258	 220.0	 3	    1.11000	    0.95000;
	105	 1	 0.0	 0.0	 0.0	 0.0	 1	    1.09231	   -5.85151	 220.0	 3	    1.11000	    0.95000;
	106	 2	 7.0	 18.0	 0.0	 0.0	 1	    1.09021	   -5.07239	 220.0	 3	    1.11000	    0.95000;
	107	 1	 0.0	 0.0	 0.0	 0.0	 1	    1.09017	   -5.07210	 220.0	 3	    1.11000	    0.95000;
	108	 1	 27.63	 5.872	 0.0	 0.0	 1	    1.09446	   -5.10163	 220.0	 3	    1.11000	    0.95000;
	109	 1	 17.522	 3.337	 0.0	 0.0	 1	    1.09448	   -5.10890	 220.0	 3	    1.11000	    0.95000;
	110	 1	 0.0	 0.0	 0.0	 0.0	 1	    1.08577	   -6.39158	 220.0	 3	    1.11000	    0.95000;
	111	 1	 0.0	 0.0	 0.0	 0.0	 1	    1.08776	   -5.87148	 220.0	 3	    1.11000	    0.95000;
	112	 1	 0.0	 0.0	 0.0	 0.0	 1	    1.08777	   -5.87219	 220.0	 3	    1.11000	    0.95000;
	113	 1	 0.0	 0.0	 0.0	 0.0	 1	    1.08674	   -6.01832	 220.0	 3	    1.11000	    0.95000;
	114	 1	 0.0	 0.0	 0.0	 0.0	 1	    1.08675	   -6.01323	 220.0	 3	    1.11000	    0.95000;
	115	 1	 0.0	 0.0	 0.0	 0.0	 1	    1.03674	   -3.86693	 400.0	 3	    1.05000	    0.95000;
	116	 1	 0.0	 0.0	 0.0	 0.0	 1	    1.08925	   -5.59385	 220.0	 3	    1.11000	    0.95000;
	117	 2	 8.0	 15.0	 0.0	 0.0	 1	    1.08923	   -5.58446	 220.0	 3	    1.11000	    0.95000;
	118	 1	 0.0	 0.0	 0.0	 0.0	 1	    1.08843	   -6.17873	 220.0	 3	    1.11000	    0.95000;
	119	 1	 0.0	 0.0	 0.0	 0.0	 1	    1.08844	   -6.17749	 220.0	 3	    1.11000	    0.95000;
	120	 1	 0.0	 0.0	 0.0	 0.0	 1	    1.04711	   -5.72159	 400.0	 3	    1.05000	    0.95000;
	121	 1	 0.0	 0.0	 0.0	 0.0	 1	    1.04715	   -5.71763	 400.0	 3	    1.05000	    0.95000;
	122	 1	 0.0	 0.0	 0.0	 0.0	 1	    1.04313	   -3.68033	 400.0	 3	    1.05000	    0.95000;
	123	 1	 0.0	 0.0	 0.0	 0.0	 1	    1.04317	   -3.67734	 400.0	 3	    1.05000	    0.95000;
	124	 1	 0.0	 0.0	 0.0	 0.0	 1	    1.08521	   -6.46371	 220.0	 3	    1.11000	    0.95000;
	125	 1	 2.929	 0.867	 0.0	 0.0	 1	    1.09803	   -4.86178	 220.0	 3	    1.11000	    0.95000;
	126	 2	 19.898	 27.707	 0.0	 0.0	 1	    1.09785	   -4.85627	 220.0	 3	    1.11000	    0.95000;
	127	 2	 12.2	 25.8	 0.0	 0.0	 1	    1.03152	   -3.52304	 400.0	 3	    1.05000	    0.95000;
	128	 1	 0.0	 0.0	 0.0	 0.0	 1	    1.03145	   -3.52747	 400.0	 3	    1.05000	    0.95000;
	129	 1	 0.0	 0.0	 0.0	 0.0	 1	    1.10052	   -3.50158	 220.0	 3	    1.11000	    0.95000;
	130	 1	 0.0	 0.0	 0.0	 0.0	 1	    1.10048	   -3.50238	 220.0	 3	    1.11000	    0.95000;
	131	 1	 0.0	 0.0	 0.0	 0.0	 1	    1.09985	   -3.38439	 220.0	 3	    1.11000	    0.95000;
	132	 2	 137.0	 9.0	 0.0	 0.0	 1	    1.08065	  -10.20971	 220.0	 3	    1.11000	    0.95000;
	133	 2	 137.0	 6.0	 0.0	 0.0	 1	    1.08065	  -10.21439	 220.0	 3	    1.11000	    0.95000;
	134	 1	 0.515	 1.973	 0.0	 0.0	 1	    1.10143	   -3.83822	 220.0	 4	    1.11000	    0.95000;
	135	 2	 15.242	 14.277	 0.0	 0.0	 1	    1.10146	   -3.83547	 220.0	 4	    1.11000	    0.95000;
	136	 1	 0.0	 0.0	 0.0	 0.0	 1	    1.10903	   -4.57107	 220.0	 4	    1.11000	    0.95000;
	137	 1	 0.0	 0.0	 0.0	 0.0	 1	    1.10843	   -3.94819	 220.0	 4	    1.11000	    0.95000;
	138	 1	 0.0	 0.0	 0.0	 0.0	 1	    1.03365	   -3.87088	 400.0	 4	    1.05000	    0.95000;
	139	 1	 0.0	 0.0	 0.0	 0.0	 1	    1.03367	   -3.87355	 400.0	 4	    1.05000	    0.95000;
	140	 1	 0.0	 0.0	 0.0	 0.0	 1	    1.10182	   -8.69630	 220.0	 4	    1.11000	    0.95000;
	141	 1	 0.0	 0.0	 0.0	 0.0	 1	    1.09366	   -7.87255	 220.0	 4	    1.11000	    0.95000;
	142	 1	 0.0	 0.0	 0.0	 0.0	 1	    1.09366	   -7.87255	 220.0	 4	    1.11000	    0.95000;
	143	 1	 0.0	 0.0	 0.0	 0.0	 1	    1.10248	   -7.70349	 220.0	 4	    1.11000	    0.95000;
	144	 1	 0.0	 0.0	 0.0	 0.0	 1	    1.10642	   -5.07706	 220.0	 4	    1.11000	    0.95000;
	145	 1	 0.0	 0.0	 0.0	 0.0	 1	    1.10642	   -5.07706	 220.0	 4	    1.11000	    0.95000;
	146	 1	 7.636	 13.257	 0.0	 0.0	 1	    1.09956	   -5.49074	 220.0	 4	    1.11000	    0.95000;
	147	 1	 0.0	 0.0	 0.0	 0.0	 1	    1.09962	   -5.48876	 220.0	 4	    1.11000	    0.95000;
	148	 2	 10.87	 14.867	 0.0	 0.0	 1	    1.09637	   -7.02905	 220.0	 4	    1.11000	    0.95000;
	149	 1	 0.0	 0.0	 0.0	 0.0	 1	    1.09646	   -7.04079	 220.0	 4	    1.11000	    0.95000;
	150	 2	 10.989	 15.0	 0.0	 0.0	 1	    1.03393	   -9.77502	 400.0	 4	    1.05000	    0.95000;
	151	 2	 20.672	 21.479	 0.0	 0.0	 1	    1.03392	   -9.77249	 400.0	 4	    1.05000	    0.95000;
	152	 1	 0.0	 0.0	 0.0	 0.0	 1	    1.09841	   -8.34283	 220.0	 4	    1.11000	    0.95000;
	153	 1	 0.0	 0.0	 0.0	 0.0	 1	    1.10775	   -5.99896	 220.0	 4	    1.11000	    0.95000;
	154	 1	 0.0	 0.0	 0.0	 0.0	 1	    1.10776	   -6.00142	 220.0	 4	    1.11000	    0.95000;
	155	 2	 0.0	 0.0	 0.0	 0.0	 1	    1.10552	   -2.56728	 220.0	 4	    1.11000	    0.95000;
	156	 2	 13.87	 33.0	 0.0	 0.0	 1	    1.10553	   -2.56148	 220.0	 4	    1.11000	    0.95000;
	157	 1	 0.0	 0.0	 0.0	 0.0	 1	    1.02101	   -1.67850	 400.0	 4	    1.05000	    0.95000;
	158	 2	 9.989	 25.0	 0.0	 0.0	 1	    1.02097	   -1.67392	 400.0	 4	    1.05000	    0.95000;
	159	 1	 0.0	 0.0	 0.0	 0.0	 1	    1.09818	   -7.87203	 220.0	 4	    1.11000	    0.95000;
	160	 1	 0.0	 0.0	 0.0	 0.0	 1	    1.09818	   -7.87203	 220.0	 4	    1.11000	    0.95000;
	161	 1	 0.0	 0.0	 0.0	 0.0	 1	    1.03813	   -4.51903	 400.0	 4	    1.05000	    0.95000;
	162	 1	 0.0	 0.0	 0.0	 0.0	 1	    1.03813	   -4.00821	 400.0	 4	    1.05000	    0.95000;
	163	 1	 0.0	 0.0	 0.0	 0.0	 1	    1.03813	   -4.00780	 400.0	 4	    1.05000	    0.95000;
	164	 2	 11.664	 11.0	 0.0	 0.0	 1	    1.10107	   -5.57740	 220.0	 4	    1.11000	    0.95000;
	165	 2	 11.564	 10.667	 0.0	 0.0	 1	    1.10108	   -5.59127	 220.0	 4	    1.11000	    0.95000;
	166	 1	 0.0	 0.0	 0.0	 0.0	 1	    1.10108	   -5.59127	 220.0	 4	    1.11000	    0.95000;
	167	 1	 0.0	 0.0	 0.0	 0.0	 1	    1.10752	  -12.79139	 220.0	 4	    1.11000	    0.95000;
	168	 1	 0.0	 0.0	 0.0	 0.0	 1	    1.09297	   -7.93086	 220.0	 4	    1.11000	    0.95000;
	169	 1	 0.0	 0.0	 0.0	 0.0	 1	    1.10786	   -9.33879	 220.0	 4	    1.11000	    0.95000;
	170	 1	 0.0	 0.0	 0.0	 0.0	 1	    1.10786	   -9.34466	 220.0	 4	    1.11000	    0.95000;
	171	 1	 0.0	 0.0	 0.0	 0.0	 1	    1.02739	   -9.65910	 400.0	 4	    1.05000	    0.95000;
	172	 1	 0.0	 0.0	 0.0	 0.0	 1	    1.02739	   -9.65910	 400.0	 4	    1.05000	    0.95000;
	173	 1	 0.0	 0.0	 0.0	 0.0	 1	    1.09726	   -6.54530	 220.0	 4	    1.11000	    0.95000;
	174	 1	 0.0	 0.0	 0.0	 0.0	 1	    1.09727	   -6.54310	 220.0	 4	    1.11000	    0.95000;
	175	 1	 0.0	 0.0	 0.0	 0.0	 1	    1.09397	   -7.54637	 220.0	 4	    1.11000	    0.95000;
	176	 1	 0.0	 0.0	 0.0	 0.0	 1	    1.10867	   -4.51751	 220.0	 4	    1.11000	    0.95000;
	177	 1	 0.0	 0.0	 0.0	 0.0	 1	    1.10868	   -4.51640	 220.0	 4	    1.11000	    0.95000;
	178	 1	 0.0	 0.0	 0.0	 0.0	 1	    1.11000	   -4.72804	 220.0	 4	    1.11000	    0.95000;
	179	 1	 0.0	 0.0	 0.0	 0.0	 1	    1.11000	   -4.72804	 220.0	 4	    1.11000	    0.95000;
	180	 2	 3.13	 1.5	 0.0	 0.0	 1	    1.11000	   -5.09096	 220.0	 4	    1.11000	    0.95000;
	181	 1	 0.0	 0.0	 0.0	 0.0	 1	    1.09768	   -6.82938	 220.0	 4	    1.11000	    0.95000;
	182	 1	 0.0	 0.0	 0.0	 0.0	 1	    1.09297	  -12.03488	 220.0	 5	    1.11000	    0.95000;
	183	 1	 0.0	 0.0	 0.0	 0.0	 1	    1.10125	  -16.04384	 220.0	 5	    1.11000	    0.95000;
	184	 1	 0.0	 0.0	 0.0	 0.0	 1	    1.03510	  -15.65921	 400.0	 5	    1.05000	    0.95000;
	185	 1	 0.0	 0.0	 0.0	 0.0	 1	    1.03511	  -15.65069	 400.0	 5	    1.05000	    0.95000;
	186	 1	 0.0	 0.0	 0.0	 0.0	 1	    1.03631	  -18.54536	 400.0	 5	    1.05000	    0.95000;
	187	 1	 0.0	 0.0	 0.0	 0.0	 1	    1.03633	  -18.54983	 400.0	 5	    1.05000	    0.95000;
	188	 1	 0.0	 0.0	 0.0	 0.0	 1	    1.10088	  -17.33448	 220.0	 5	    1.11000	    0.95000;
	189	 1	 0.0	 0.0	 0.0	 0.0	 1	    1.10091	  -17.33581	 220.0	 5	    1.11000	    0.95000;
	190	 1	 0.0	 0.0	 0.0	 0.0	 1	    1.09983	  -12.66811	 220.0	 5	    1.11000	    0.95000;
	191	 1	 0.0	 0.0	 0.0	 0.0	 1	    1.09981	  -12.67208	 220.0	 5	    1.11000	    0.95000;
	192	 1	 0.0	 0.0	 0.0	 0.0	 1	    1.02566	  -14.48930	 400.0	 5	    1.05000	    0.95000;
	193	 1	 0.0	 0.0	 0.0	 0.0	 1	    1.09344	  -11.59832	 220.0	 5	    1.11000	    0.95000;
	194	 1	 0.0	 0.0	 0.0	 0.0	 1	    1.09344	  -11.59392	 220.0	 5	    1.11000	    0.95000;
	195	 1	 0.0	 0.0	 0.0	 0.0	 1	    1.04343	  -18.31312	 400.0	 5	    1.05000	    0.95000;
	196	 1	 0.0	 0.0	 0.0	 0.0	 1	    1.04343	  -18.31242	 400.0	 5	    1.05000	    0.95000;
	197	 1	 0.0	 0.0	 0.0	 0.0	 1	    1.07144	  -15.35335	 220.0	 5	    1.11000	    0.95000;
	198	 1	 0.0	 0.0	 0.0	 0.0	 1	    1.07142	  -15.35301	 220.0	 5	    1.11000	    0.95000;
	199	 1	 0.0	 0.0	 0.0	 -117.0	 1	    1.02692	  -17.55674	 400.0	 5	    1.05000	    0.95000;
	200	 1	 0.0	 0.0	 0.0	 0.0	 1	    1.02696	  -17.54908	 400.0	 5	    1.05000	    0.95000;
	201	 1	 0.0	 0.0	 0.0	 0.0	 1	    1.08792	  -12.35962	 220.0	 5	    1.11000	    0.95000;
	202	 1	 0.0	 0.0	 0.0	 0.0	 1	    1.08789	  -12.35591	 220.0	 5	    1.11000	    0.95000;
	203	 1	 0.0	 0.0	 0.0	 0.0	 1	    1.08050	  -10.91500	 220.0	 5	    1.11000	    0.95000;
	204	 1	 0.0	 0.0	 0.0	 0.0	 1	    1.08049	  -10.92294	 220.0	 5	    1.11000	    0.95000;
	205	 2	 400.0	 60.0	 0.0	 0.0	 1	    1.03217	  -19.51566	 400.0	 5	    1.05000	    0.95000;
	206	 1	 0.0	 0.0	 0.0	 0.0	 1	    1.03220	  -19.51185	 400.0	 5	    1.05000	    0.95000;
	207	 1	 0.0	 0.0	 0.0	 0.0	 1	    1.10425	  -16.52888	 220.0	 5	    1.11000	    0.95000;
	208	 1	 0.0	 0.0	 0.0	 0.0	 1	    1.10425	  -16.53241	 220.0	 5	    1.11000	    0.95000;
	209	 1	 8.114	 2.0	 0.0	 0.0	 1	    1.06349	  -10.92662	 110.0	 1	    1.12000	    0.95000;
	210	 1	 2.705	 0.5	 0.0	 0.0	 1	    1.05949	  -16.58863	 110.0	 1	    1.12000	    0.95000;
	211	 1	 2.705	 2.0	 0.0	 0.0	 1	    1.06794	  -10.30117	 110.0	 1	    1.12000	    0.95000;
	212	 1	 4.688	 4.6	 0.0	 0.0	 1	    1.04428	  -11.78311	 110.0	 1	    1.12000	    0.95000;
	213	 1	 1.623	 0.4	 0.0	 0.0	 1	    1.05679	   -0.21027	 110.0	 1	    1.12000	    0.95000;
	214	 1	 1.172	 0.3	 0.0	 0.0	 1	    1.05844	   -0.96919	 110.0	 1	    1.12000	    0.95000;
	215	 2	 6.0	 8.8	 0.0	 0.0	 1	    1.08048	  -10.91053	 110.0	 1	    1.12000	    0.95000;
	216	 1	 4.959	 0.5	 0.0	 0.0	 1	    1.08230	  -10.81047	 110.0	 1	    1.12000	    0.95000;
	217	 1	 4.057	 1.0	 0.0	 0.0	 1	    1.08175	  -10.84610	 110.0	 1	    1.12000	    0.95000;
	218	 1	 6.762	 1.5	 0.0	 0.0	 1	    1.08025	  -11.02113	 110.0	 1	    1.12000	    0.95000;
	219	 1	 5.139	 2.8	 0.0	 0.0	 1	    1.05952	  -11.23252	 110.0	 1	    1.12000	    0.95000;
	220	 1	 5.41	 1.5	 0.0	 0.0	 1	    1.05834	  -11.34893	 110.0	 1	    1.12000	    0.95000;
	221	 2	 0.0	 0.0	 0.0	 0.0	 1	    1.11045	   -6.62305	 110.0	 1	    1.12000	    0.95000;
	222	 2	 4.237	 1.7	 0.0	 0.0	 1	    1.09952	   -4.53468	 110.0	 1	    1.12000	    0.95000;
	223	 1	 6.311	 1.4	 0.0	 0.0	 1	    1.06679	  -10.82014	 110.0	 1	    1.12000	    0.95000;
	224	 1	 0.721	 0.1	 0.0	 0.0	 1	    1.05081	   -1.43626	 110.0	 1	    1.12000	    0.95000;
	225	 1	 2.074	 0.4	 0.0	 0.0	 1	    1.07280	  -12.64297	 110.0	 1	    1.12000	    0.95000;
	226	 1	 1.803	 0.0	 0.0	 0.0	 1	    1.06577	  -14.34538	 110.0	 1	    1.12000	    0.95000;
	227	 1	 7.664	 1.5	 0.0	 0.0	 1	    1.07605	  -11.00645	 110.0	 1	    1.12000	    0.95000;
	228	 1	 2.524	 1.0	 0.0	 0.0	 1	    1.06707	  -10.97088	 110.0	 1	    1.12000	    0.95000;
	229	 1	 3.246	 1.0	 0.0	 0.0	 1	    1.06709	  -10.96617	 110.0	 1	    1.12000	    0.95000;
	230	 1	 1.533	 0.78	 0.0	 0.0	 1	    1.10513	   -3.51809	 110.0	 1	    1.12000	    0.95000;
	231	 1	 1.533	 0.78	 0.0	 0.0	 1	    1.10265	   -4.36304	 110.0	 1	    1.12000	    0.95000;
	232	 1	 3.606	 1.0	 0.0	 0.0	 1	    1.06173	  -10.86231	 110.0	 1	    1.12000	    0.95000;
	233	 1	 3.246	 1.0	 0.0	 0.0	 1	    1.05849	   -0.94429	 110.0	 1	    1.12000	    0.95000;
	234	 1	 8.114	 0.5	 0.0	 0.0	 1	    1.06726	   -6.52775	 110.0	 1	    1.12000	    0.95000;
	235	 1	 22.54	 23.0	 0.0	 0.0	 1	    1.04063	   -0.61702	 110.0	 1	    1.12000	    0.95000;
	236	 1	 2.975	 0.5	 0.0	 0.0	 1	    1.05976	  -13.69008	 110.0	 1	    1.12000	    0.95000;
	237	 1	 4.057	 1.78	 0.0	 0.0	 1	    1.10650	   -3.40490	 110.0	 1	    1.12000	    0.95000;
	238	 1	 2.975	 0.6	 0.0	 0.0	 1	    1.05939	  -13.72874	 110.0	 1	    1.12000	    0.95000;
	239	 1	 2.254	 1.0	 0.0	 0.0	 1	    1.06307	  -11.99152	 110.0	 1	    1.12000	    0.95000;
	240	 2	 0.0	 0.0	 0.0	 0.0	 1	    1.05886	  -11.84404	 110.0	 1	    1.12000	    0.95000;
	241	 1	 4.959	 0.8	 0.0	 0.0	 1	    1.06806	  -15.35081	 110.0	 1	    1.12000	    0.95000;
	242	 1	 2.074	 0.83	 0.0	 0.0	 1	    1.10427	   -3.96400	 110.0	 1	    1.12000	    0.95000;
	243	 1	 3.336	 0.4	 0.0	 0.0	 1	    1.11053	   -3.13544	 110.0	 1	    1.12000	    0.95000;
	244	 1	 3.336	 0.4	 0.0	 0.0	 1	    1.11054	   -3.12393	 110.0	 1	    1.12000	    0.95000;
	245	 1	 1.623	 1.5	 0.0	 0.0	 1	    1.06722	  -10.14783	 110.0	 1	    1.12000	    0.95000;
	246	 1	 0.0	 0.0	 0.0	 0.0	 1	    1.06091	    0.93660	 110.0	 1	    1.12000	    0.95000;
	247	 2	 0.0	 5.0	 0.0	 0.0	 1	    1.04692	    4.40804	 22.0	 1	    1.12000	    0.95000;
	248	 1	 3.606	 1.0	 0.0	 0.0	 1	    1.06412	  -15.11825	 110.0	 1	    1.12000	    0.95000;
	249	 1	 1.352	 0.0	 0.0	 0.0	 1	    1.06444	  -15.59986	 110.0	 1	    1.12000	    0.95000;
	250	 1	 1.352	 0.0	 0.0	 0.0	 1	    1.06722	  -14.58231	 110.0	 1	    1.12000	    0.95000;
	251	 1	 1.352	 0.0	 0.0	 0.0	 1	    1.05572	  -17.35775	 110.0	 1	    1.12000	    0.95000;
	252	 1	 1.984	 0.3	 0.0	 0.0	 1	    1.07280	  -11.04085	 110.0	 1	    1.12000	    0.95000;
	253	 1	 9.016	 5.0	 0.0	 0.0	 1	    1.06061	   -7.69477	 110.0	 1	    1.12000	    0.95000;
	254	 1	 8.565	 4.0	 0.0	 0.0	 1	    1.06215	  -10.92703	 110.0	 1	    1.12000	    0.95000;
	255	 1	 5.41	 1.0	 0.0	 0.0	 1	    1.05979	  -17.30257	 110.0	 1	    1.12000	    0.95000;
	256	 1	 7.213	 1.0	 0.0	 0.0	 1	    1.06840	  -14.06343	 110.0	 1	    1.12000	    0.95000;
	257	 1	 2.254	 0.0	 0.0	 0.0	 1	    1.06844	  -14.19883	 110.0	 1	    1.12000	    0.95000;
	258	 1	 2.029	 0.5	 0.0	 0.0	 1	    1.05795	    0.14439	 110.0	 1	    1.12000	    0.95000;
	259	 1	 2.029	 0.5	 0.0	 0.0	 1	    1.05795	    0.14099	 110.0	 1	    1.12000	    0.95000;
	260	 1	 4.418	 1.78	 0.0	 0.0	 1	    1.10047	   -3.93930	 110.0	 1	    1.12000	    0.95000;
	261	 1	 2.254	 0.0	 0.0	 0.0	 1	    1.05616	  -17.57290	 110.0	 1	    1.12000	    0.95000;
	262	 1	 4.869	 2.1	 0.0	 0.0	 1	    1.06707	  -10.73979	 110.0	 1	    1.12000	    0.95000;
	263	 1	 0.0	 0.0	 0.0	 0.0	 1	    1.06619	   -9.93193	 110.0	 1	    1.12000	    0.95000;
	264	 1	 0.721	 0.8	 0.0	 0.0	 1	    1.06015	  -14.34430	 110.0	 1	    1.12000	    0.95000;
	265	 1	 19.835	 20.0	 0.0	 0.0	 1	    1.05854	    0.55473	 110.0	 1	    1.12000	    0.95000;
	266	 1	 31.555	 33.0	 0.0	 0.0	 1	    1.04875	   -1.06204	 110.0	 1	    1.12000	    0.95000;
	267	 1	 24.344	 0.9	 0.0	 0.0	 1	    1.06325	    0.84012	 110.0	 1	    1.12000	    0.95000;
	268	 1	 0.902	 0.0	 0.0	 0.0	 1	    1.06197	  -10.70137	 110.0	 1	    1.12000	    0.95000;
	269	 1	 3.967	 0.1	 0.0	 0.0	 1	    1.06918	  -10.50752	 110.0	 1	    1.12000	    0.95000;
	270	 1	 3.336	 1.4	 0.0	 0.0	 1	    1.07352	  -10.99927	 110.0	 1	    1.12000	    0.95000;
	271	 1	 4.508	 1.0	 0.0	 0.0	 1	    1.07570	  -11.20212	 110.0	 1	    1.12000	    0.95000;
	272	 1	 4.058	 0.5	 0.0	 0.0	 1	    1.05506	  -17.14159	 110.0	 1	    1.12000	    0.95000;
	273	 1	 5.229	 1.45	 0.0	 0.0	 1	    1.06044	  -10.74360	 110.0	 1	    1.12000	    0.95000;
	274	 1	 0.36	 0.1	 0.0	 0.0	 1	    1.05886	  -11.26634	 110.0	 1	    1.12000	    0.95000;
	275	 1	 0.09	 0.03	 0.0	 0.0	 1	    1.06582	  -10.78103	 110.0	 1	    1.12000	    0.95000;
	276	 1	 0.0	 0.0	 0.0	 0.0	 1	    1.06506	  -10.94109	 110.0	 1	    1.12000	    0.95000;
	277	 1	 6.311	 3.59	 0.0	 0.0	 1	    1.11034	   -2.98205	 110.0	 1	    1.12000	    0.95000;
	278	 1	 0.0	 0.0	 0.0	 0.0	 1	    1.10627	   -3.53161	 110.0	 1	    1.12000	    0.95000;
	279	 1	 3.606	 1.4	 0.0	 0.0	 1	    1.10136	   -4.43469	 110.0	 1	    1.12000	    0.95000;
	280	 1	 1.352	 0.5	 0.0	 0.0	 1	    1.07585	  -11.41474	 110.0	 1	    1.12000	    0.95000;
	281	 1	 2.705	 0.0	 0.0	 0.0	 1	    1.06738	  -11.94040	 110.0	 1	    1.12000	    0.95000;
	282	 1	 2.705	 1.0	 0.0	 0.0	 1	    1.06663	  -10.81994	 110.0	 1	    1.12000	    0.95000;
	283	 1	 3.606	 1.0	 0.0	 0.0	 1	    1.06564	  -10.42075	 110.0	 1	    1.12000	    0.95000;
	284	 1	 16.229	 16.0	 0.0	 0.0	 1	    1.03717	   -1.21681	 110.0	 1	    1.12000	    0.95000;
	285	 1	 40.572	 42.0	 0.0	 0.0	 1	    1.03689	   -1.21634	 110.0	 1	    1.12000	    0.95000;
	286	 1	 0.992	 0.3	 0.0	 0.0	 1	    1.06696	    0.73271	 110.0	 1	    1.12000	    0.95000;
	287	 1	 0.0	 0.0	 0.0	 0.0	 1	    1.05983	    0.46811	 110.0	 1	    1.12000	    0.95000;
	288	 1	 4.779	 2.1	 0.0	 0.0	 1	    1.10993	   -2.90170	 110.0	 1	    1.12000	    0.95000;
	289	 1	 4.959	 1.2	 0.0	 0.0	 1	    1.10728	   -3.36168	 110.0	 1	    1.12000	    0.95000;
	290	 1	 4.508	 1.5	 0.0	 0.0	 1	    1.06399	  -14.02539	 110.0	 1	    1.12000	    0.95000;
	291	 1	 2.705	 1.0	 0.0	 0.0	 1	    1.07539	  -12.18029	 110.0	 1	    1.12000	    0.95000;
	292	 1	 2.524	 2.0	 0.0	 0.0	 1	    1.06003	  -11.42883	 110.0	 1	    1.12000	    0.95000;
	293	 1	 1.443	 0.4	 0.0	 0.0	 1	    1.10500	   -4.73183	 110.0	 1	    1.12000	    0.95000;
	294	 1	 9.466	 4.2	 0.0	 0.0	 1	    1.06617	  -10.37146	 110.0	 1	    1.12000	    0.95000;
	295	 1	 7.213	 2.5	 0.0	 0.0	 1	    1.06729	  -10.72738	 110.0	 1	    1.12000	    0.95000;
	296	 1	 2.795	 1.13	 0.0	 0.0	 1	    1.11025	   -2.78361	 110.0	 1	    1.12000	    0.95000;
	297	 1	 1.406	 1.1	 0.0	 0.0	 1	    1.06555	   -9.11039	 110.0	 1	    1.12000	    0.95000;
	298	 1	 2.164	 0.4	 0.0	 0.0	 1	    1.06716	  -10.89009	 110.0	 1	    1.12000	    0.95000;
	299	 1	 3.787	 0.5	 0.0	 0.0	 1	    1.10446	   -4.77287	 110.0	 1	    1.12000	    0.95000;
	300	 1	 3.606	 0.7	 0.0	 0.0	 1	    1.10534	   -3.97810	 110.0	 1	    1.12000	    0.95000;
	301	 1	 2.885	 1.27	 0.0	 0.0	 1	    1.10481	   -3.53961	 110.0	 1	    1.12000	    0.95000;
	302	 1	 4.598	 1.85	 0.0	 0.0	 1	    1.10225	   -4.38923	 110.0	 1	    1.12000	    0.95000;
	303	 1	 5.409	 1.0	 0.0	 0.0	 1	    1.07799	  -11.17183	 110.0	 1	    1.12000	    0.95000;
	304	 1	 0.0	 0.0	 0.0	 0.0	 1	    1.10653	   -3.53577	 110.0	 1	    1.12000	    0.95000;
	305	 1	 2.705	 1.0	 0.0	 0.0	 1	    1.04753	   -1.79940	 110.0	 1	    1.12000	    0.95000;
	306	 1	 5.86	 2.57	 0.0	 0.0	 1	    1.11021	   -2.78392	 110.0	 1	    1.12000	    0.95000;
	307	 1	 3.877	 1.56	 0.0	 0.0	 1	    1.10430	   -3.94185	 110.0	 1	    1.12000	    0.95000;
	308	 1	 5.229	 2.11	 0.0	 0.0	 1	    1.11009	   -2.93176	 110.0	 1	    1.12000	    0.95000;
	309	 1	 6.401	 2.58	 0.0	 0.0	 1	    1.10439	   -3.56697	 110.0	 1	    1.12000	    0.95000;
	310	 2	 8.934	 4.46	 0.0	 0.0	 1	    1.10654	   -3.41920	 110.0	 1	    1.12000	    0.95000;
	311	 1	 0.847	 0.56	 0.0	 0.0	 1	    1.10462	   -3.55146	 110.0	 1	    1.12000	    0.95000;
	312	 2	 7.57	 3.66	 0.0	 0.0	 1	    1.10435	   -4.14890	 110.0	 1	    1.12000	    0.95000;
	313	 1	 0.0	 0.0	 0.0	 0.0	 1	    1.10466	   -3.54957	 110.0	 1	    1.12000	    0.95000;
	314	 2	 4.173	 2.02	 0.0	 0.0	 1	    1.11057	   -2.93398	 110.0	 1	    1.12000	    0.95000;