%%%%%%%%%%%%%%%%%%%%%%%%%%%%%%%%%%%%%%%%%%%%%%%%%%%%%%%%%%%%%%%%%%%%%%%%%%%
%%%%                                                                  %%%%%
%%%%    IEEE PES Power Grid Library - Optimal Power Flow - v17.07     %%%%%
%%%%          (https://github.com/power-grid-lib/pglib-opf)           %%%%%
%%%%               Benchmark Group - Typical Operations               %%%%%
%%%%                         26 - June - 2017                         %%%%%
%%%%                                                                  %%%%%
%%%%%%%%%%%%%%%%%%%%%%%%%%%%%%%%%%%%%%%%%%%%%%%%%%%%%%%%%%%%%%%%%%%%%%%%%%%
%
%CASE1951RTE
%   AC Power flow data for French system.
%   Please see CASEFORMAT for details on the case file format.
%
%   This case accurately represents the size and complexity of French
%   very high voltage transmission network.
%   Part of this data was sampled in the offline platform of iTesla.
%   These data can be used to validate mathematical methods and tools.
%   These data should NOT be used for operation
%   nor planning of the French or European grids.
%
%   When publishing results using this data, please cite:
%     C. Josz, S. Fliscounakis, J. Maeght, and P. Panciatici,
%     "AC Power Flow Data in MATPOWER and QCQP Format: iTesla, RTE Snapshots, and PEGASE"
%     http://arxiv.org/abs/1603.01533
%
%   Contacts (primary contact for this file : Jean Maeght):
%   Cédric Josz, Stéphane Fliscounakis, Jean Maeght, Patrick Panciatici
%   firstname.lastname@rte-france.com
%   Réseau de Transport d'Electricité (French Transmission System Operator)
%   Département Expertise Système, Immeuble "Le Colbert"
%   9 rue de la Porte de Buc, 78000 Versailles Cedex, France
%   March 4th, 2016
%
%   Copyright (c) 2016 by Cédric Josz, Stéphane Fliscounakis, Jean Maeght,
%   and Patrick Panciatici
%   Licensed under the Creative Commons Attribution 4.0 International license,
%   http://creativecommons.org/licenses/by/4.0/
%
function mpc = pglib_opf_case1951_rte
mpc.version = '2';
mpc.baseMVA = 100.0;

%% bus data
%	bus_i	type	Pd	Qd	Gs	Bs	area	Vm	Va	baseKV	zone	Vmax	Vmin
mpc.bus = [
	1	 1	 36.4	 19.5	 0.0	 0.0	 1	    1.06151	  -13.05228	 225.0	 1	    1.08889	    0.88889;
	2	 1	 0.0	 0.0	 0.0	 0.0	 1	    1.09842	   -0.31434	 380.0	 1	    1.10263	    1.04841;
	3	 1	 245.2	 16.4	 0.0	 0.0	 1	    1.06354	  -12.43241	 225.0	 1	    1.08444	    1.00444;
	4	 1	 0.0	 0.0	 0.0	 0.0	 1	    1.06787	   -2.09604	 150.0	 1	    1.10667	    0.90000;
	5	 1	 51.8	 13.5	 0.0	 0.0	 1	    1.08853	   -3.42044	 225.0	 1	    1.08889	    0.93333;
	6	 1	 36.6	 11.6	 0.0	 0.0	 1	    1.08231	   -4.64974	 225.0	 1	    1.08889	    0.93333;
	7	 1	 0.0	 0.0	 0.0	 0.0	 1	    1.09574	   -3.29292	 380.0	 1	    1.10526	    1.03947;
	8	 1	 0.0	 0.0	 0.0	 0.0	 1	    1.08893	   -3.96208	 380.0	 1	    1.10526	    1.03947;
	9	 1	 0.0	 0.0	 0.0	 0.0	 1	    1.08703	  -18.54657	 225.0	 1	    1.09035	    1.00444;
	10	 1	 193.4	 48.9	 0.0	 0.0	 1	    1.05411	   -8.92750	 225.0	 1	    1.08889	    0.93333;
	11	 1	 57.7	 14.6	 0.0	 0.0	 1	    1.07915	  -19.64612	 225.0	 1	    1.08889	    1.00444;
	12	 1	 27.8	 24.4	 0.0	 0.0	 1	    1.08578	  -16.14011	 225.0	 1	    1.08889	    1.00444;
	13	 1	 177.5	 52.5	 0.0	 0.0	 1	    1.07893	  -19.64786	 225.0	 1	    1.08889	    1.00444;
	14	 1	 75.8	 7.3	 0.0	 0.0	 1	    1.07199	   -9.45131	 225.0	 1	    1.08252	    0.95000;
	15	 1	 0.0	 0.0	 0.0	 0.0	 1	    1.08889	   -4.40204	 225.0	 1	    1.08889	    1.00444;
	16	 1	 0.0	 0.0	 0.0	 0.0	 1	    1.08889	   -4.40204	 225.0	 1	    1.08889	    1.00444;
	17	 1	 66.2	 0.9	 0.0	 0.0	 1	    1.07210	   -9.51171	 225.0	 1	    1.08889	    0.88889;
	18	 1	 12.3	 7.1	 0.0	 0.0	 1	    1.07515	   -4.99570	 225.0	 1	    1.09633	    0.98667;
	19	 1	 67.9	 23.0	 0.0	 0.0	 1	    1.06737	  -18.10991	 225.0	 1	    1.08889	    1.00444;
	20	 1	 29.2	 7.2	 0.0	 0.0	 1	    1.06744	  -18.10721	 225.0	 1	    1.08889	    1.00444;
	21	 1	 77.8	 31.2	 0.0	 0.0	 1	    1.07437	  -15.80395	 225.0	 1	    1.08889	    1.00444;
	22	 1	 105.6	 22.8	 0.0	 0.0	 1	    1.07116	  -10.19889	 225.0	 1	    1.08889	    0.98667;
	23	 1	 41.1	 2.7	 0.0	 0.0	 1	    1.06064	  -11.78553	 225.0	 1	    1.08889	    0.88889;
	25	 1	 56.2	 8.1	 0.0	 0.0	 1	    1.08164	  -20.62569	 225.0	 1	    1.08444	    1.00889;
	26	 1	 29.3	 6.4	 0.0	 0.0	 1	    1.08197	  -20.58001	 225.0	 1	    1.08444	    1.00889;
	27	 1	 102.1	 38.0	 0.0	 0.0	 1	    1.05205	   -8.01303	 225.0	 1	    1.08889	    0.93333;
	28	 1	 172.1	 40.0	 0.0	 0.0	 1	    1.07477	  -16.06251	 225.0	 1	    1.08889	    1.00444;
	29	 1	 0.0	 0.0	 0.0	 0.0	 1	    1.09863	   -0.27541	 380.0	 1	    1.10526	    1.04842;
	30	 1	 0.0	 0.0	 0.0	 0.0	 1	    1.09865	   -0.27360	 380.0	 1	    1.10526	    1.04842;
	31	 1	 36.2	 31.7	 0.0	 0.0	 1	    1.08160	   -4.52739	 225.0	 1	    1.08444	    1.00889;
	33	 1	 133.2	 20.1	 0.0	 0.0	 1	    1.07980	   -7.95013	 225.0	 1	    1.08444	    1.00889;
	34	 1	 89.4	 29.6	 0.0	 0.0	 1	    1.04087	  -19.10593	 225.0	 1	    1.08889	    1.00444;
	2013	 1	 0.0	 0.0	 0.0	 0.0	 1	    1.08031	  -19.46926	 225.0	 1	    1.08889	    1.00444;
	35	 1	 10.3	 -0.4	 0.0	 0.0	 1	    1.07317	   -5.32490	 150.0	 1	    1.08000	    0.96667;
	36	 1	 22.3	 6.7	 0.0	 80.0	 1	    1.06760	  -10.62679	 225.0	 1	    1.09212	    1.00000;
	37	 1	 0.0	 0.0	 0.0	 0.0	 1	    1.07427	   -7.42405	 380.0	 1	    1.10526	    1.04785;
	38	 1	 144.2	 18.9	 0.0	 0.0	 1	    1.04846	  -12.41671	 225.0	 1	    1.08889	    0.98667;
	39	 1	 117.8	 31.5	 0.0	 0.0	 1	    1.07299	   -9.26812	 225.0	 1	    1.08889	    0.96889;
	40	 1	 194.8	 53.6	 0.0	 0.0	 1	    1.08747	   -5.91400	 380.0	 1	    1.10526	    1.00000;
	41	 1	 64.7	 12.6	 0.0	 0.0	 1	    1.07525	   -7.55588	 225.0	 1	    1.08889	    0.93333;
	42	 1	 44.6	 15.6	 0.0	 0.0	 1	    1.06956	  -10.57365	 225.0	 1	    1.08889	    0.88889;
	43	 1	 46.9	 11.7	 0.0	 0.0	 1	    1.06971	  -10.57884	 225.0	 1	    1.08889	    0.88889;
	44	 1	 381.3	 62.5	 0.0	 0.0	 1	    1.07066	  -20.70232	 225.0	 1	    1.08496	    1.00444;
	45	 1	 161.5	 -38.5	 0.0	 0.0	 1	    1.07984	  -17.76528	 225.0	 1	    1.08889	    1.00444;
	46	 2	 0.0	 0.0	 0.0	 0.0	 1	    1.10668	   -6.17352	 150.0	 1	    1.10843	    0.90000;
	47	 1	 0.0	 0.0	 0.0	 0.0	 1	    1.08778	  -18.34770	 225.0	 1	    1.08889	    1.00444;
	48	 1	 0.0	 0.0	 0.0	 0.0	 1	    1.08778	  -18.34770	 225.0	 1	    1.08889	    1.00444;
	49	 1	 123.5	 43.4	 0.0	 0.0	 1	    1.08777	  -18.34770	 225.0	 1	    1.08889	    1.00444;
	50	 1	 10.0	 3.7	 0.0	 0.0	 1	    1.07488	  -16.62312	 225.0	 1	    1.08889	    1.00444;
	51	 1	 0.0	 0.0	 0.0	 0.0	 1	    1.08606	   -9.51786	 225.0	 1	    1.08889	    1.00000;
	52	 1	 74.6	 28.0	 0.0	 0.0	 1	    1.05814	  -12.27658	 225.0	 1	    1.08889	    0.88889;
	53	 1	 160.2	 38.2	 0.0	 0.0	 1	    1.07653	   -5.16468	 225.0	 1	    1.08889	    0.96889;
	54	 1	 0.0	 0.0	 0.0	 0.0	 1	    1.09302	   -1.47788	 380.0	 1	    1.10526	    1.00000;
	55	 1	 31.0	 11.0	 0.0	 0.0	 1	    1.07982	   -6.38827	 225.0	 1	    1.08444	    1.00889;
	56	 1	 14.7	 -1.0	 0.0	 0.0	 1	    1.08015	   -6.37315	 225.0	 1	    1.08444	    1.00889;
	1827	 1	 201.2	 11.7	 0.0	 0.0	 1	    1.06316	  -20.18335	 225.0	 1	    1.08889	    1.00444;
	57	 1	 57.0	 3.0	 0.0	 0.0	 1	    1.07914	   -7.50996	 225.0	 1	    1.08945	    0.93333;
	58	 2	 0.0	 0.0	 0.0	 0.0	 1	    1.10521	   -6.38056	 150.0	 1	    1.10862	    0.90000;
	59	 1	 55.4	 19.7	 0.0	 0.0	 1	    1.08381	   -3.86789	 225.0	 1	    1.08444	    1.00889;
	60	 1	 55.7	 41.6	 0.0	 0.0	 1	    1.08346	   -3.86478	 225.0	 1	    1.08444	    1.00889;
	61	 1	 0.0	 0.0	 0.0	 0.0	 1	    1.08401	   -4.43881	 225.0	 1	    1.08889	    0.97778;
	62	 1	 16.4	 4.9	 0.0	 0.0	 1	    1.08682	   -9.76529	 225.0	 1	    1.08889	    0.88889;
	63	 1	 1.6	 12.7	 0.0	 0.0	 1	    1.08889	   -2.16429	 225.0	 1	    1.08889	    0.93333;
	64	 1	 29.7	 12.0	 0.0	 0.0	 1	    1.08437	  -16.43145	 225.0	 1	    1.08889	    1.00444;
	65	 1	 54.7	 13.6	 0.0	 0.0	 1	    1.08645	  -18.63341	 225.0	 1	    1.08889	    1.00444;
	66	 1	 -21.9	 -5.1	 0.0	 0.0	 1	    1.08636	   -9.80643	 225.0	 1	    1.08889	    1.00000;
	67	 1	 29.2	 -2.5	 0.0	 0.0	 1	    1.08203	  -11.60871	 225.0	 1	    1.08889	    0.98667;
	68	 1	 0.0	 0.0	 0.0	 80.0	 1	    1.08057	  -10.38045	 225.0	 1	    1.08889	    0.88889;
	69	 1	 0.0	 0.0	 0.0	 0.0	 1	    1.06406	  -11.24507	 225.0	 1	    1.08889	    0.88889;
	70	 1	 0.0	 0.0	 0.0	 0.0	 1	    1.08585	   -6.95409	 380.0	 1	    1.10526	    1.01316;
	71	 1	 76.3	 14.3	 0.0	 0.0	 1	    1.06644	  -18.30140	 225.0	 1	    1.08889	    1.00444;
	72	 1	 29.0	 5.0	 0.0	 0.0	 1	    1.08470	  -16.95429	 225.0	 1	    1.08889	    1.00444;
	73	 1	 0.0	 0.0	 0.0	 0.0	 1	    1.07610	   -5.28860	 225.0	 1	    1.08889	    0.97778;
	74	 1	 0.0	 0.0	 0.0	 0.0	 1	    1.07611	   -5.28800	 225.0	 1	    1.08889	    0.97778;
	75	 1	 182.4	 31.2	 0.0	 0.0	 1	    1.07352	   -5.88685	 225.0	 1	    1.08444	    1.00889;
	76	 1	 0.0	 0.0	 0.0	 0.0	 1	    1.07728	  -16.43987	 225.0	 1	    1.08444	    1.00444;
	77	 1	 0.0	 0.0	 0.0	 0.0	 1	    1.09478	  -10.33222	 380.0	 1	    1.10263	    1.04211;
	78	 1	 116.1	 17.6	 0.0	 0.0	 1	    1.07695	  -16.50001	 225.0	 1	    1.08444	    1.00444;
	79	 1	 -7.4	 0.9	 0.0	 0.0	 1	    1.08677	  -15.97615	 225.0	 1	    1.08936	    1.00444;
	80	 1	 14.0	 12.6	 0.0	 0.0	 1	    1.08663	  -15.98625	 225.0	 1	    1.08936	    1.00444;
	81	 1	 48.7	 2.9	 0.0	 0.0	 1	    1.08308	   -5.64717	 225.0	 1	    1.08889	    0.88889;
	82	 1	 27.9	 3.3	 0.0	 0.0	 1	    1.06408	  -11.02973	 225.0	 1	    1.08124	    0.95000;
	83	 1	 61.9	 19.7	 0.0	 0.0	 1	    1.08016	   -5.08161	 225.0	 1	    1.08889	    0.88889;
	84	 1	 158.1	 -16.5	 0.0	 0.0	 1	    1.05493	  -11.40750	 225.0	 1	    1.08889	    1.00000;
	85	 1	 0.0	 0.0	 0.0	 0.0	 1	    1.04527	   -8.76726	 225.0	 1	    1.08889	    1.00000;
	86	 1	 403.7	 124.8	 0.0	 0.0	 1	    1.08402	   -8.71344	 380.0	 1	    1.10526	    1.05070;
	87	 1	 108.6	 44.4	 0.0	 0.0	 1	    1.06148	  -10.16715	 225.0	 1	    1.08889	    1.00000;
	88	 1	 140.7	 36.8	 0.0	 0.0	 1	    1.07877	  -11.12314	 225.0	 1	    1.08889	    1.00000;
	89	 2	 0.0	 0.0	 0.0	 0.0	 1	    1.03441	  -11.00902	 150.0	 1	    1.10000	    0.90000;
	90	 1	 56.6	 23.2	 0.0	 0.0	 1	    1.04891	  -12.67788	 225.0	 1	    1.08889	    0.98667;
	91	 1	 12.5	 6.1	 0.0	 0.0	 1	    1.07833	   -4.74234	 225.0	 1	    1.08444	    1.00889;
	92	 1	 0.0	 0.0	 0.0	 0.0	 1	    1.10033	   -1.51626	 380.0	 1	    1.10526	    1.04211;
	93	 1	 0.0	 0.0	 0.0	 0.0	 1	    1.10032	   -1.57499	 380.0	 1	    1.10526	    1.04211;
	96	 1	 12.7	 0.6	 0.0	 0.0	 1	    1.05904	  -10.51394	 225.0	 1	    1.08889	    1.00000;
	97	 1	 18.3	 11.1	 0.0	 0.0	 1	    1.06851	  -15.85174	 225.0	 1	    1.08889	    1.00444;
	98	 1	 90.8	 9.6	 0.0	 0.0	 1	    1.08438	   -9.61908	 150.0	 1	    1.10000	    0.90000;
	99	 1	 82.1	 -2.6	 0.0	 0.0	 1	    1.08467	  -10.33028	 225.0	 1	    1.08889	    1.00000;
	100	 2	 1.3	 0.0	 0.0	 0.0	 1	    1.06754	  -18.15480	 225.0	 1	    1.08294	    0.95000;
	101	 1	 0.0	 0.0	 0.0	 0.0	 1	    1.08889	   -3.34251	 225.0	 1	    1.08889	    0.93333;
	102	 1	 0.0	 0.0	 0.0	 0.0	 1	    1.08977	   -3.88487	 380.0	 1	    1.10526	    1.03947;
	103	 1	 0.0	 0.0	 0.0	 0.0	 1	    1.09632	   -3.22996	 380.0	 1	    1.10526	    1.03947;
	104	 1	 0.0	 0.0	 0.0	 0.0	 1	    1.07950	  -19.62418	 225.0	 1	    1.08889	    1.00444;
	1828	 1	 86.9	 24.6	 0.0	 0.0	 1	    1.03887	  -19.37405	 225.0	 1	    1.08889	    1.00444;
	105	 1	 0.0	 0.0	 0.0	 0.0	 1	    1.04694	   -8.14976	 225.0	 1	    1.08889	    0.98667;
	106	 1	 12.8	 7.6	 0.0	 0.0	 1	    1.07935	  -19.63316	 225.0	 1	    1.08889	    1.00444;
	107	 1	 150.1	 27.1	 0.0	 0.0	 1	    1.04473	   -8.06635	 225.0	 1	    1.08889	    0.93333;
	108	 1	 0.0	 0.0	 0.0	 0.0	 1	    1.07836	   -4.72200	 380.0	 1	    1.10526	    1.03947;
	109	 1	 32.1	 -1.6	 0.0	 0.0	 1	    1.07168	   -8.70900	 225.0	 1	    1.08889	    1.00000;
	110	 1	 29.4	 1.2	 0.0	 0.0	 1	    1.07798	  -16.85879	 225.0	 1	    1.08986	    1.00444;
	111	 1	 131.9	 2.8	 0.0	 0.0	 1	    1.07167	  -11.30656	 225.0	 1	    1.09612	    1.00000;
	112	 1	 174.9	 55.6	 0.0	 0.0	 1	    1.06854	   -6.77453	 225.0	 1	    1.08889	    0.98667;
	113	 1	 129.6	 33.2	 0.0	 0.0	 1	    1.08706	  -18.53976	 225.0	 1	    1.09036	    1.00444;
	114	 1	 245.6	 120.6	 0.0	 0.0	 1	    1.04755	  -12.81984	 225.0	 1	    1.08889	    0.92444;
	115	 1	 82.1	 14.7	 0.0	 0.0	 1	    1.09611	   -3.13324	 225.0	 1	    1.09614	    0.98667;
	117	 1	 0.0	 0.0	 0.0	 0.0	 1	    1.10415	   -1.94778	 380.0	 1	    1.10526	    1.03947;
	119	 1	 192.0	 -29.8	 0.0	 0.0	 1	    1.06164	  -31.76547	 225.0	 1	    1.08444	    1.00444;
	120	 1	 21.6	 -16.9	 0.0	 0.0	 1	    1.08399	  -19.31595	 225.0	 1	    1.08444	    1.00889;
	121	 1	 0.0	 0.0	 0.0	 0.0	 1	    1.07848	  -16.58673	 380.0	 1	    1.10263	    1.02895;
	122	 1	 -0.1	 -4.2	 0.0	 0.0	 1	    1.04529	   -8.07288	 225.0	 1	    1.08889	    0.93333;
	123	 1	 172.6	 37.2	 0.0	 0.0	 1	    1.05469	   -7.57558	 225.0	 1	    1.08889	    0.93333;
	124	 1	 31.9	 29.8	 0.0	 0.0	 1	    1.01354	  -17.73183	 63.0	 1	    1.07937	    0.92063;
	125	 2	 0.0	 0.0	 0.0	 0.0	 1	    1.07476	   -3.44237	 225.0	 1	    1.07476	    0.95000;
	126	 1	 4.4	 5.3	 0.0	 0.0	 1	    1.08007	   -1.98146	 225.0	 1	    1.09768	    1.00000;
	127	 1	 0.0	 0.0	 0.0	 0.0	 1	    1.07912	   -1.81378	 380.0	 1	    1.10526	    1.05263;
	128	 1	 0.0	 0.0	 0.0	 0.0	 1	    1.07918	   -1.81071	 380.0	 1	    1.10526	    1.05263;
	129	 1	 0.0	 0.0	 0.0	 0.0	 1	    1.07918	   -1.80716	 380.0	 1	    1.10526	    1.05263;
	130	 1	 0.0	 0.0	 0.0	 0.0	 1	    1.07918	   -1.82262	 380.0	 1	    1.10526	    1.05263;
	131	 1	 0.0	 0.0	 0.0	 0.0	 1	    1.09645	   -3.01155	 225.0	 1	    1.09645	    0.98667;
	132	 1	 0.0	 0.0	 0.0	 0.0	 1	    1.09645	   -3.03034	 225.0	 1	    1.09645	    0.98667;
	133	 1	 0.0	 0.0	 0.0	 0.0	 1	    1.10454	   -1.82764	 380.0	 1	    1.10526	    1.03947;
	134	 1	 123.5	 26.5	 0.0	 0.0	 1	    1.05959	  -11.23154	 225.0	 1	    1.08889	    0.96889;
	135	 1	 39.1	 10.1	 0.0	 0.0	 1	    1.08171	  -20.56298	 225.0	 1	    1.08444	    1.00889;
	136	 1	 4.4	 -3.3	 0.0	 0.0	 1	    1.10482	   -7.96240	 380.0	 1	    1.10526	    1.03947;
	137	 1	 166.9	 46.7	 0.0	 0.0	 1	    1.06011	   -7.67938	 225.0	 1	    1.08889	    0.93333;
	138	 1	 0.0	 0.0	 0.0	 0.0	 1	    1.07775	   -2.72590	 380.0	 1	    1.10526	    1.03947;
	140	 1	 202.0	 20.2	 0.0	 0.0	 1	    1.08074	   -4.23068	 225.0	 1	    1.08444	    1.00889;
	142	 1	 231.3	 -18.3	 0.0	 0.0	 1	    1.05828	  -10.36842	 225.0	 1	    1.08444	    1.00444;
	143	 1	 49.3	 7.8	 0.0	 0.0	 1	    1.05880	   -8.41596	 225.0	 1	    1.08889	    0.93333;
	144	 1	 40.6	 10.3	 0.0	 0.0	 1	    1.05878	   -8.41583	 225.0	 1	    1.08889	    0.93333;
	145	 1	 49.8	 -6.2	 0.0	 0.0	 1	    1.07803	  -16.84571	 225.0	 1	    1.08952	    1.00444;
	146	 1	 0.0	 0.0	 0.0	 0.0	 1	    1.08451	   -5.43825	 225.0	 1	    1.09478	    1.00000;
	147	 1	 0.0	 0.0	 0.0	 0.0	 1	    1.08450	   -5.43823	 225.0	 1	    1.09478	    1.00000;
	148	 1	 68.7	 4.5	 0.0	 0.0	 1	    1.05699	  -10.90089	 225.0	 1	    1.08889	    1.00000;
	149	 1	 30.0	 -1.5	 0.0	 0.0	 1	    1.07870	  -12.41414	 225.0	 1	    1.08889	    1.00444;
	150	 1	 52.2	 3.9	 0.0	 0.0	 1	    1.07737	   -4.91077	 225.0	 1	    1.08444	    1.00889;
	151	 1	 40.2	 6.8	 0.0	 0.0	 1	    1.05040	  -12.10500	 225.0	 1	    1.08889	    1.00000;
	152	 1	 0.0	 0.0	 0.0	 0.0	 1	    1.08207	  -10.93879	 225.0	 1	    1.08444	    1.00889;
	153	 1	 0.0	 0.0	 0.0	 0.0	 1	    1.08198	  -10.94841	 225.0	 1	    1.08444	    1.00889;
	154	 1	 0.0	 0.0	 0.0	 0.0	 1	    1.08193	   -5.76662	 225.0	 1	    1.08444	    1.00889;
	155	 1	 0.0	 0.0	 0.0	 0.0	 1	    1.08430	   -4.30795	 380.0	 1	    1.10263	    1.02895;
	156	 1	 165.9	 38.2	 0.0	 0.0	 1	    1.08050	   -4.92516	 225.0	 1	    1.08889	    0.88889;
	157	 1	 0.0	 0.0	 0.0	 0.0	 1	    1.08008	   -1.98122	 225.0	 1	    1.09766	    1.00000;
	158	 1	 0.0	 0.0	 0.0	 0.0	 1	    1.07906	   -1.88739	 380.0	 1	    1.10526	    1.05263;
	159	 1	 37.1	 -0.1	 0.0	 0.0	 1	    1.08100	  -12.84590	 225.0	 1	    1.08889	    0.98667;
	160	 1	 17.9	 14.6	 0.0	 0.0	 1	    1.07266	  -10.16240	 225.0	 1	    1.08889	    1.00000;
	161	 1	 0.0	 0.0	 0.0	 0.0	 1	    1.06713	  -35.32277	 225.0	 1	    1.08444	    1.00444;
	162	 1	 0.0	 0.0	 0.0	 0.0	 1	    1.06713	  -35.32277	 225.0	 1	    1.08444	    1.00444;
	163	 1	 0.0	 0.0	 0.0	 0.0	 1	    1.06714	  -35.32297	 225.0	 1	    1.08444	    1.00444;
	164	 1	 96.9	 -7.4	 0.0	 0.0	 1	    1.06713	  -35.32274	 225.0	 1	    1.08444	    1.00444;
	165	 1	 0.0	 0.0	 0.0	 0.0	 1	    1.05401	   -8.05273	 225.0	 1	    1.08889	    0.93333;
	166	 1	 8.5	 -5.2	 0.0	 0.0	 1	    1.07605	  -11.81118	 225.0	 1	    1.08889	    0.98667;
	167	 1	 0.0	 0.0	 0.0	 0.0	 1	    1.08553	   -5.28971	 225.0	 1	    1.08941	    1.00000;
	168	 1	 0.0	 0.0	 0.0	 0.0	 1	    1.09726	   -3.43615	 380.0	 1	    1.10526	    1.05263;
	169	 2	 0.0	 0.0	 0.0	 0.0	 1	    1.08936	   -3.31592	 225.0	 1	    1.10000	    0.90000;
	170	 1	 13.0	 4.0	 0.0	 0.0	 1	    1.07186	   -5.40200	 150.0	 1	    1.08000	    0.96667;
	171	 1	 50.4	 4.5	 0.0	 0.0	 1	    1.06783	  -17.93255	 225.0	 1	    1.08889	    1.00444;
	172	 1	 0.4	 0.6	 0.0	 0.0	 1	    1.06812	  -17.85292	 225.0	 1	    1.08889	    1.00444;
	173	 1	 29.1	 -7.9	 0.0	 0.0	 1	    1.08136	   -5.12613	 225.0	 1	    1.08889	    0.88889;
	175	 1	 0.0	 0.0	 0.0	 0.0	 1	    1.08433	   -5.11338	 225.0	 1	    1.09176	    1.00000;
	176	 1	 0.0	 0.0	 0.0	 0.0	 1	    1.08433	   -5.11223	 225.0	 1	    1.09176	    1.00000;
	177	 1	 0.0	 0.0	 0.0	 0.0	 1	    1.08433	   -5.11222	 225.0	 1	    1.09176	    1.00000;
	178	 1	 0.0	 0.0	 0.0	 0.0	 1	    1.08437	   -5.11318	 225.0	 1	    1.09176	    1.00000;
	179	 1	 0.0	 0.0	 0.0	 0.0	 1	    1.08437	   -5.11318	 225.0	 1	    1.09176	    1.00000;
	180	 2	 0.0	 0.0	 0.0	 0.0	 1	    1.09480	   -2.12718	 380.0	 1	    1.10676	    0.90000;
	181	 1	 181.5	 39.9	 0.0	 0.0	 1	    1.05060	  -12.07297	 225.0	 1	    1.08889	    1.00000;
	182	 1	 32.0	 21.4	 0.0	 0.0	 1	    1.07683	   -6.93937	 225.0	 1	    1.08889	    0.98667;
	183	 1	 0.0	 0.0	 0.0	 0.0	 1	    1.08979	   -0.79320	 380.0	 1	    1.10526	    1.03947;
	184	 1	 0.0	 0.0	 0.0	 0.0	 1	    1.08944	   -0.69286	 380.0	 1	    1.10526	    1.03947;
	185	 1	 0.0	 0.0	 0.0	 0.0	 1	    1.08945	   -0.69640	 380.0	 1	    1.10526	    1.03947;
	186	 1	 0.0	 0.0	 0.0	 0.0	 1	    1.08978	   -0.80359	 380.0	 1	    1.10526	    1.03947;
	187	 1	 65.9	 23.3	 0.0	 0.0	 1	    1.07743	  -10.80744	 225.0	 1	    1.08889	    0.92444;
	188	 1	 5.4	 1.4	 0.0	 0.0	 1	    1.05000	  -12.22427	 225.0	 1	    1.08889	    0.98667;
	189	 1	 101.7	 -4.3	 0.0	 0.0	 1	    1.06546	  -26.31180	 225.0	 1	    1.08444	    1.00444;
	190	 1	 -6.8	 -0.2	 0.0	 0.0	 1	    1.09483	    0.14574	 380.0	 1	    1.10263	    1.04211;
	191	 1	 -5.3	 -0.0	 0.0	 0.0	 1	    1.09484	    0.12807	 380.0	 1	    1.10263	    1.04211;
	192	 1	 0.0	 0.0	 0.0	 0.0	 1	    1.06466	  -18.56872	 225.0	 1	    1.08889	    1.00444;
	193	 1	 0.0	 0.0	 0.0	 0.0	 1	    1.08018	   -5.65819	 225.0	 1	    1.08889	    0.97778;
	194	 1	 0.0	 0.0	 0.0	 0.0	 1	    1.08019	   -5.65827	 225.0	 1	    1.08889	    0.97778;
	195	 1	 135.5	 19.2	 0.0	 0.0	 1	    1.05752	  -12.14656	 225.0	 1	    1.08889	    0.96889;
	196	 1	 0.0	 0.0	 0.0	 0.0	 1	    1.07956	   -4.41082	 225.0	 1	    1.08889	    0.93333;
	197	 1	 0.0	 0.0	 0.0	 0.0	 1	    1.07969	   -4.35920	 225.0	 1	    1.08889	    0.93333;
	198	 1	 98.9	 26.5	 0.0	 0.0	 1	    1.05646	  -23.38466	 225.0	 1	    1.08444	    1.00444;
	199	 1	 299.2	 -25.2	 0.0	 0.0	 1	    1.06383	  -20.39850	 225.0	 1	    1.08444	    1.00444;
	200	 1	 0.0	 0.0	 0.0	 0.0	 1	    1.07746	   -5.62136	 225.0	 1	    1.08889	    0.97778;
	201	 1	 0.0	 0.0	 0.0	 0.0	 1	    1.08438	  -10.37062	 225.0	 1	    1.08444	    1.00444;
	202	 1	 211.2	 31.0	 0.0	 0.0	 1	    1.06254	  -13.68801	 225.0	 1	    1.08889	    0.95111;
	203	 1	 89.7	 19.5	 0.0	 0.0	 1	    1.08445	  -16.84273	 225.0	 1	    1.08889	    1.00444;
	204	 1	 92.2	 26.0	 0.0	 0.0	 1	    1.04951	  -12.30261	 225.0	 1	    1.08889	    0.98667;
	205	 1	 29.6	 2.7	 0.0	 0.0	 1	    1.07648	  -19.81406	 225.0	 1	    1.08444	    1.00889;
	206	 1	 0.0	 0.0	 0.0	 0.0	 1	    1.07746	  -17.56524	 380.0	 1	    1.10263	    1.02895;
	207	 1	 127.0	 40.5	 0.0	 0.0	 1	    1.08431	  -17.13984	 225.0	 1	    1.08889	    1.00444;
	1829	 2	 0.0	 0.0	 0.0	 0.0	 1	    1.06673	   -9.06797	 225.0	 1	    1.07859	    0.95000;
	208	 1	 0.0	 0.0	 0.0	 0.0	 1	    1.06671	   -9.07023	 225.0	 1	    1.08889	    0.88889;
	209	 1	 310.2	 64.5	 0.0	 80.0	 1	    1.06843	  -23.95354	 225.0	 1	    1.08444	    1.00444;
	210	 1	 62.1	 16.8	 0.0	 0.0	 1	    1.07729	   -4.71295	 225.0	 1	    1.09504	    0.98667;
	211	 1	 91.9	 12.1	 0.0	 0.0	 1	    1.07877	   -8.61512	 225.0	 1	    1.08444	    1.00889;
	212	 1	 26.8	 -0.9	 0.0	 0.0	 1	    1.07972	   -7.96356	 225.0	 1	    1.08444	    1.00889;
	213	 1	 133.0	 16.9	 0.0	 0.0	 1	    1.07407	   -5.15837	 225.0	 1	    1.08889	    0.93333;
	215	 1	 0.0	 0.0	 0.0	 0.0	 1	    1.09373	   -0.22501	 380.0	 1	    1.10526	    1.03947;
	216	 1	 95.1	 16.3	 0.0	 0.0	 1	    1.08415	   -5.52230	 380.0	 1	    1.10526	    1.03947;
	217	 1	 0.0	 0.0	 0.0	 0.0	 1	    1.07889	   -4.55737	 225.0	 1	    1.08889	    0.93333;
	218	 1	 0.0	 0.0	 0.0	 0.0	 1	    1.07813	   -4.73620	 225.0	 1	    1.08889	    0.93333;
	219	 1	 34.4	 10.1	 0.0	 0.0	 1	    1.08417	   -3.43343	 225.0	 1	    1.08444	    1.00889;
	220	 1	 2.2	 3.5	 0.0	 0.0	 1	    1.08438	   -3.40392	 225.0	 1	    1.08444	    1.00889;
	221	 1	 -7.5	 -7.3	 0.0	 0.0	 1	    1.08188	   -7.05934	 225.0	 1	    1.08444	    1.00889;
	222	 1	 85.2	 17.1	 0.0	 0.0	 1	    1.07013	  -15.53644	 225.0	 1	    1.08889	    1.00444;
	223	 1	 38.1	 1.2	 0.0	 0.0	 1	    1.07887	   -8.56241	 225.0	 1	    1.08444	    1.00889;
	224	 1	 21.4	 -2.1	 0.0	 0.0	 1	    1.07929	   -8.49936	 225.0	 1	    1.08444	    1.00889;
	225	 1	 7.0	 3.7	 0.0	 0.0	 1	    1.08914	  -10.33066	 150.0	 1	    1.10667	    0.94667;
	1830	 1	 0.0	 0.0	 0.0	 0.0	 1	    1.06432	  -32.86607	 225.0	 1	    1.08444	    1.00444;
	226	 1	 0.0	 0.0	 0.0	 0.0	 1	    1.07165	  -28.17853	 380.0	 1	    1.10263	    1.04211;
	227	 1	 180.4	 -2.0	 0.0	 0.0	 1	    1.07477	  -10.55550	 225.0	 1	    1.09795	    1.00000;
	228	 1	 0.0	 0.0	 0.0	 0.0	 1	    1.07391	   -7.95132	 380.0	 1	    1.10526	    1.05019;
	229	 1	 127.1	 31.0	 0.0	 0.0	 1	    1.08062	  -10.29251	 225.0	 1	    1.08889	    0.91111;
	230	 1	 0.0	 0.0	 0.0	 0.0	 1	    1.09330	   -4.70694	 380.0	 1	    1.10526	    1.00000;
	231	 1	 44.4	 13.2	 0.0	 0.0	 1	    1.07947	  -19.62838	 225.0	 1	    1.08889	    1.00444;
	232	 1	 49.0	 11.1	 0.0	 0.0	 1	    1.03899	  -19.36598	 225.0	 1	    1.08889	    1.00444;
	233	 1	 23.8	 0.4	 0.0	 0.0	 1	    1.08367	  -12.37922	 225.0	 1	    1.08889	    0.98667;
	234	 1	 0.4	 0.5	 0.0	 0.0	 1	    1.08387	  -12.30838	 225.0	 1	    1.08889	    0.98667;
	235	 1	 4.0	 1.0	 0.0	 0.0	 1	    1.08582	  -17.78427	 225.0	 1	    1.08889	    1.00444;
	236	 1	 30.4	 23.5	 0.0	 0.0	 1	    1.08494	  -17.81867	 225.0	 1	    1.08889	    1.00444;
	237	 1	 249.6	 70.0	 0.0	 0.0	 1	    1.05053	  -16.69605	 225.0	 1	    1.08889	    1.00444;
	238	 1	 0.0	 0.0	 0.0	 0.0	 1	    1.05724	  -15.54898	 225.0	 1	    1.08889	    1.00444;
	239	 1	 56.5	 14.2	 0.0	 0.0	 1	    1.08249	  -19.07675	 225.0	 1	    1.08889	    1.00444;
	240	 1	 58.6	 15.7	 0.0	 0.0	 1	    1.08187	  -19.12251	 225.0	 1	    1.08889	    1.00444;
	241	 2	 -50.0	 0.8	 0.0	 0.0	 1	    1.00120	   -0.95419	 20.0	 1	    1.10000	    0.90000;
	242	 1	 0.0	 0.0	 0.0	 0.0	 1	    1.07099	   -6.92346	 150.0	 1	    1.08000	    0.96667;
	243	 1	 -9.2	 0.5	 0.0	 0.0	 1	    1.10755	    0.39936	 380.0	 1	    1.11402	    1.03947;
	244	 1	 28.9	 24.3	 0.0	 0.0	 1	    1.10786	    0.61303	 380.0	 1	    1.11482	    1.03947;
	245	 1	 18.2	 8.4	 0.0	 0.0	 1	    1.10945	    0.23538	 380.0	 1	    1.11264	    1.03947;
	246	 1	 -41.3	 6.5	 0.0	 0.0	 1	    1.10944	    0.23423	 380.0	 1	    1.11483	    1.03947;
	247	 1	 105.5	 26.5	 0.0	 0.0	 1	    1.06665	  -18.20173	 225.0	 1	    1.08889	    1.00444;
	248	 1	 0.0	 0.0	 0.0	 0.0	 1	    1.08889	   -8.63226	 225.0	 1	    1.08889	    1.00000;
	249	 1	 0.0	 0.0	 0.0	 0.0	 1	    1.08857	   -8.97687	 225.0	 1	    1.08889	    1.00000;
	250	 1	 0.0	 0.0	 0.0	 0.0	 1	    1.09799	   -8.14782	 380.0	 1	    1.10526	    1.05019;
	251	 1	 25.5	 1.2	 0.0	 0.0	 1	    1.07390	   -5.21656	 225.0	 1	    1.08889	    0.93333;
	252	 1	 171.9	 30.6	 0.0	 0.0	 1	    1.08267	  -10.95166	 380.0	 1	    1.10526	    1.03537;
	253	 1	 4.2	 0.0	 0.0	 0.0	 1	    1.08092	  -16.97234	 225.0	 1	    1.08889	    1.00444;
	254	 1	 0.0	 0.0	 0.0	 0.0	 1	    1.08197	  -16.90542	 225.0	 1	    1.08889	    1.00444;
	255	 1	 3.8	 7.1	 0.0	 0.0	 1	    1.08120	  -17.22100	 225.0	 1	    1.08889	    1.00444;
	256	 1	 0.0	 0.0	 0.0	 80.0	 1	    1.07741	  -16.36297	 225.0	 1	    1.08889	    1.00444;
	257	 1	 0.0	 0.0	 0.0	 0.0	 1	    1.08154	  -11.27667	 380.0	 1	    1.10526	    1.04211;
	258	 1	 0.0	 0.0	 0.0	 0.0	 1	    1.08109	  -11.36766	 380.0	 1	    1.10526	    1.04211;
	259	 1	 185.6	 81.4	 0.0	 0.0	 1	    1.04633	  -12.90391	 225.0	 1	    1.08889	    0.92889;
	260	 1	 119.0	 80.1	 0.0	 0.0	 1	    1.08405	   -5.52928	 380.0	 1	    1.10526	    1.03947;
	261	 1	 192.7	 31.7	 0.0	 0.0	 1	    1.07475	  -23.58543	 225.0	 1	    1.08444	    1.00444;
	262	 1	 15.3	 3.5	 0.0	 0.0	 1	    1.07714	   -4.88647	 225.0	 1	    1.08889	    0.93333;
	263	 1	 296.4	 84.9	 0.0	 0.0	 1	    1.08610	   -1.31823	 380.0	 1	    1.10526	    1.03947;
	267	 1	 355.7	 111.0	 0.0	 0.0	 1	    1.08315	  -10.65209	 225.0	 1	    1.08444	    1.00444;
	268	 1	 0.0	 0.0	 0.0	 0.0	 1	    1.09477	   -7.40885	 380.0	 1	    1.10263	    1.04211;
	269	 1	 0.0	 0.0	 0.0	 0.0	 1	    1.09479	   -7.40556	 380.0	 1	    1.10263	    1.04211;
	270	 2	 52.3	 16.7	 0.0	 0.0	 1	    1.06846	   -9.33159	 20.0	 1	    1.06846	    0.95000;
	271	 1	 0.0	 0.0	 0.0	 0.0	 1	    1.06854	   -9.23514	 225.0	 1	    1.08889	    0.98667;
	272	 1	 252.4	 112.7	 0.0	 0.0	 1	    1.06084	  -11.93455	 225.0	 1	    1.08889	    0.98667;
	273	 1	 322.8	 48.4	 0.0	 0.0	 1	    1.08660	  -13.19326	 380.0	 1	    1.10263	    1.04211;
	274	 1	 74.3	 48.9	 0.0	 0.0	 1	    1.06557	  -10.10186	 225.0	 1	    1.09611	    0.98667;
	275	 1	 6.3	 1.4	 0.0	 0.0	 1	    1.07572	   -8.86282	 225.0	 1	    1.08889	    1.00444;
	276	 1	 48.0	 8.0	 0.0	 0.0	 1	    1.08742	  -18.44648	 225.0	 1	    1.08889	    1.00444;
	277	 1	 -0.0	 -0.0	 0.0	 0.0	 1	    1.08753	  -18.38233	 225.0	 1	    1.08889	    1.00444;
	278	 1	 0.0	 0.0	 0.0	 0.0	 1	    1.06968	   -5.84529	 20.0	 1	    1.40000	    0.90000;
	279	 1	 45.0	 46.1	 0.0	 0.0	 1	    1.06431	   -5.07235	 225.0	 1	    1.08889	    0.93333;
	280	 1	 253.3	 26.3	 0.0	 0.0	 1	    1.08157	   -1.68558	 380.0	 1	    1.10526	    1.03947;
	281	 1	 0.0	 0.0	 0.0	 0.0	 1	    1.08285	   -5.83577	 225.0	 1	    1.08959	    1.00000;
	282	 1	 0.0	 0.0	 0.0	 0.0	 1	    1.08576	   -5.29242	 225.0	 1	    1.08959	    1.00000;
	283	 1	 0.0	 0.0	 0.0	 0.0	 1	    1.03392	  -11.08190	 150.0	 1	    1.08000	    0.96667;
	284	 1	 40.1	 2.4	 0.0	 0.0	 1	    1.08621	  -18.19793	 225.0	 1	    1.08889	    1.00444;
	285	 1	 110.1	 18.7	 0.0	 0.0	 1	    1.07616	  -17.22482	 225.0	 1	    1.08889	    1.00444;
	286	 1	 120.6	 18.1	 0.0	 0.0	 1	    1.06923	   -7.03450	 225.0	 1	    1.08889	    0.93333;
	287	 1	 35.9	 8.7	 0.0	 0.0	 1	    1.06656	  -14.47812	 225.0	 1	    1.08444	    1.00444;
	288	 1	 24.2	 6.8	 0.0	 0.0	 1	    1.06657	  -14.47706	 225.0	 1	    1.08444	    1.00444;
	289	 1	 75.2	 12.5	 0.0	 0.0	 1	    1.07452	  -16.16208	 225.0	 1	    1.08889	    1.00444;
	290	 1	 176.7	 47.6	 0.0	 0.0	 1	    1.08398	  -11.71418	 225.0	 1	    1.08889	    1.00444;
	291	 1	 0.0	 0.0	 0.0	 0.0	 1	    1.08886	  -10.26660	 380.0	 1	    1.10526	    1.04211;
	292	 1	 0.0	 0.0	 0.0	 0.0	 1	    1.08923	  -10.18178	 380.0	 1	    1.10526	    1.04211;
	293	 1	 0.0	 0.0	 0.0	 0.0	 1	    1.09803	   -7.81690	 380.0	 1	    1.10526	    1.04211;
	294	 1	 0.0	 0.0	 0.0	 0.0	 1	    1.08904	  -10.22418	 380.0	 1	    1.10526	    1.04211;
	295	 1	 317.6	 108.4	 0.0	 325.0	 1	    1.07497	  -24.18859	 225.0	 1	    1.08444	    1.00444;
	296	 1	 0.0	 0.0	 0.0	 0.0	 1	    1.08582	   -6.75568	 380.0	 1	    1.10526	    1.00000;
	297	 1	 63.5	 14.5	 0.0	 80.0	 1	    1.08749	  -18.46023	 225.0	 1	    1.08889	    1.00444;
	298	 1	 0.0	 0.0	 0.0	 0.0	 1	    1.08558	  -18.60392	 225.0	 1	    1.08889	    1.00444;
	299	 1	 0.0	 0.0	 0.0	 0.0	 1	    1.09612	   -2.14406	 380.0	 1	    1.10526	    1.03947;
	300	 1	 0.0	 0.0	 0.0	 0.0	 1	    1.09504	  -10.28762	 380.0	 1	    1.10263	    1.04211;
	301	 1	 0.0	 0.0	 0.0	 0.0	 1	    1.09487	  -10.28712	 380.0	 1	    1.10263	    1.04211;
	302	 1	 0.0	 0.0	 0.0	 0.0	 1	    1.09487	  -10.28707	 380.0	 1	    1.10263	    1.04211;
	303	 1	 342.7	 113.2	 0.0	 0.0	 1	    1.04998	  -24.02827	 225.0	 1	    1.08444	    1.00444;
	304	 1	 28.9	 -5.7	 0.0	 0.0	 1	    1.10970	    1.23936	 380.0	 1	    1.11618	    1.00000;
	305	 1	 -21.4	 7.7	 0.0	 0.0	 1	    1.10917	    1.03385	 380.0	 1	    1.11703	    1.00000;
	306	 1	 82.8	 19.7	 0.0	 0.0	 1	    1.08641	   -5.37483	 225.0	 1	    1.08889	    0.88889;
	307	 1	 0.0	 0.0	 0.0	 0.0	 1	    1.07776	  -15.46935	 225.0	 1	    1.08889	    1.00444;
	308	 1	 0.0	 0.0	 0.0	 0.0	 1	    1.08393	  -10.96067	 380.0	 1	    1.10526	    1.04211;
	309	 1	 88.4	 -29.1	 0.0	 0.0	 1	    1.07759	  -10.06042	 225.0	 1	    1.09445	    1.00000;
	310	 1	 -12.7	 -1.9	 0.0	 0.0	 1	    1.06006	    0.11987	 380.0	 1	    1.10263	    1.04211;
	311	 1	 -27.9	 -8.5	 0.0	 0.0	 1	    1.05983	    0.09536	 380.0	 1	    1.10263	    1.04211;
	312	 1	 1.0	 -8.1	 0.0	 0.0	 1	    1.06361	   -9.22417	 225.0	 1	    1.08895	    0.93333;
	313	 1	 141.2	 17.7	 0.0	 0.0	 1	    1.07533	   -9.17864	 225.0	 1	    1.08889	    1.00444;
	314	 1	 57.4	 17.5	 0.0	 0.0	 1	    1.06054	  -12.17977	 225.0	 1	    1.08889	    0.88889;