%%%%%%%%%%%%%%%%%%%%%%%%%%%%%%%%%%%%%%%%%%%%%%%%%%%%%%%%%%%%%%%%%%%%%%%%%%%
%%%%                                                                  %%%%%
%%%%    IEEE PES Power Grid Library - Optimal Power Flow - v17.07     %%%%%
%%%%          (https://github.com/power-grid-lib/pglib-opf)           %%%%%
%%%%               Benchmark Group - Typical Operations               %%%%%
%%%%                         26 - June - 2017                         %%%%%
%%%%                                                                  %%%%%
%%%%%%%%%%%%%%%%%%%%%%%%%%%%%%%%%%%%%%%%%%%%%%%%%%%%%%%%%%%%%%%%%%%%%%%%%%%
%
%CASE1888RTE
%   AC Power flow data for French system.
%   Please see CASEFORMAT for details on the case file format.
%
%   This case accurately represents the size and complexity of French
%   very high voltage transmission network.
%   Part of this data was sampled in the offline platform of iTesla.
%   These data can be used to validate mathematical methods and tools.
%   These data should NOT be used for operation
%   nor planning of the French or European grids.
%
%   When publishing results using this data, please cite:
%     C. Josz, S. Fliscounakis, J. Maeght, and P. Panciatici,
%     "AC Power Flow Data in MATPOWER and QCQP Format: iTesla, RTE Snapshots, and PEGASE"
%     http://arxiv.org/abs/1603.01533
%
%   Contacts (primary contact for this file : Jean Maeght):
%   Cédric Josz, Stéphane Fliscounakis, Jean Maeght, Patrick Panciatici
%   firstname.lastname@rte-france.com
%   Réseau de Transport d'Electricité (French Transmission System Operator)
%   Département Expertise Système, Immeuble "Le Colbert"
%   9 rue de la Porte de Buc, 78000 Versailles Cedex, France
%   March 4th, 2016
%
%   Copyright (c) 2016 by Cédric Josz, Stéphane Fliscounakis, Jean Maeght,
%   and Patrick Panciatici
%   Licensed under the Creative Commons Attribution 4.0 International license,
%   http://creativecommons.org/licenses/by/4.0/
%
function mpc = pglib_opf_case1888_rte
mpc.version = '2';
mpc.baseMVA = 100.0;

%% bus data
%	bus_i	type	Pd	Qd	Gs	Bs	area	Vm	Va	baseKV	zone	Vmax	Vmin
mpc.bus = [
	1	 1	 5.8	 -5.8	 0.0	 0.0	 1	    1.03581	  -20.68644	 225.0	 1	    1.08889	    0.88889;
	2	 1	 0.0	 0.0	 0.0	 0.0	 1	    1.05577	   -0.50099	 380.0	 1	    1.10263	    1.04841;
	3	 1	 142.5	 -13.4	 0.0	 0.0	 1	    1.04729	    1.78535	 225.0	 1	    1.08444	    1.00444;
	4	 1	 0.0	 0.0	 0.0	 0.0	 1	    1.05199	  -13.31126	 150.0	 1	    1.10667	    0.90000;
	5	 1	 32.8	 -5.3	 0.0	 0.0	 1	    1.06271	  -14.33919	 225.0	 1	    1.08889	    0.93333;
	6	 1	 40.2	 4.0	 0.0	 0.0	 1	    1.06035	  -14.88823	 225.0	 1	    1.08889	    0.93333;
	7	 1	 0.0	 0.0	 0.0	 0.0	 1	    1.04281	  -12.63250	 380.0	 1	    1.10526	    1.03947;
	8	 1	 0.0	 0.0	 0.0	 0.0	 1	    1.05768	  -12.38581	 380.0	 1	    1.10526	    1.03947;
	9	 1	 0.0	 0.0	 0.0	 0.0	 1	    1.05074	  -16.45924	 225.0	 1	    1.09035	    1.00444;
	10	 1	 148.8	 14.9	 0.0	 0.0	 1	    1.04605	  -18.81802	 225.0	 1	    1.08889	    0.93333;
	11	 1	 25.6	 5.0	 0.0	 0.0	 1	    1.04408	  -18.39505	 225.0	 1	    1.08889	    1.00444;
	12	 1	 39.1	 8.7	 0.0	 0.0	 1	    1.02153	  -19.19947	 225.0	 1	    1.08889	    1.00444;
	13	 1	 70.5	 17.2	 0.0	 0.0	 1	    1.04407	  -18.39219	 225.0	 1	    1.08889	    1.00444;
	14	 1	 36.0	 -4.2	 0.0	 0.0	 1	    1.03441	  -19.02403	 225.0	 1	    1.08252	    0.95000;
	15	 1	 0.0	 0.0	 0.0	 0.0	 1	    1.04757	  -10.71897	 225.0	 1	    1.08889	    1.00444;
	16	 1	 0.0	 0.0	 0.0	 0.0	 1	    1.04757	  -10.71897	 225.0	 1	    1.08889	    1.00444;
	17	 1	 23.7	 -12.4	 0.0	 0.0	 1	    1.03391	  -19.18464	 225.0	 1	    1.08889	    0.88889;
	18	 1	 5.9	 -4.8	 0.0	 0.0	 1	    1.03461	  -19.01776	 225.0	 1	    1.09633	    0.98667;
	19	 1	 34.0	 3.7	 0.0	 0.0	 1	    1.03534	  -18.98959	 225.0	 1	    1.08889	    1.00444;
	20	 1	 6.9	 0.8	 0.0	 0.0	 1	    1.03537	  -18.98728	 225.0	 1	    1.08889	    1.00444;
	21	 1	 9.2	 -29.1	 0.0	 0.0	 1	    1.04660	  -14.83012	 225.0	 1	    1.08889	    1.00444;
	22	 1	 67.7	 -3.6	 0.0	 0.0	 1	    1.04095	  -21.66078	 225.0	 1	    1.08889	    0.98667;
	23	 1	 25.4	 -2.7	 0.0	 0.0	 1	    1.02591	  -22.88417	 225.0	 1	    1.08889	    0.88889;
	25	 1	 64.0	 4.6	 0.0	 0.0	 1	    1.06113	  -15.16067	 225.0	 1	    1.08444	    1.00889;
	27	 1	 71.6	 46.7	 0.0	 0.0	 1	    1.01876	  -13.21127	 225.0	 1	    1.08889	    0.93333;
	28	 1	 105.4	 6.9	 0.0	 0.0	 1	    1.04033	  -16.12204	 225.0	 1	    1.08889	    1.00444;
	29	 1	 0.0	 0.0	 0.0	 0.0	 1	    1.05572	   -0.48482	 380.0	 1	    1.10526	    1.04842;
	30	 1	 0.0	 0.0	 0.0	 0.0	 1	    1.05575	   -0.46527	 380.0	 1	    1.10526	    1.04842;
	31	 1	 21.7	 0.9	 0.0	 0.0	 1	    1.04988	   -3.24482	 225.0	 1	    1.08444	    1.00889;
	33	 1	 68.9	 2.6	 0.0	 0.0	 1	    1.04322	   -4.25355	 225.0	 1	    1.08444	    1.00889;
	34	 1	 50.6	 12.7	 0.0	 0.0	 1	    1.04397	  -18.30969	 225.0	 1	    1.08889	    1.00444;
	35	 1	 17.0	 2.1	 0.0	 0.0	 1	    1.03405	  -13.90352	 150.0	 1	    1.08000	    0.96667;
	36	 1	 38.2	 6.3	 0.0	 0.0	 1	    1.06196	  -14.53133	 225.0	 1	    1.09212	    1.00000;
	37	 1	 0.0	 0.0	 0.0	 0.0	 1	    1.06882	  -11.99650	 380.0	 1	    1.10526	    1.04785;
	38	 1	 89.0	 9.6	 0.0	 0.0	 1	    1.03047	  -23.07951	 225.0	 1	    1.08889	    0.98667;
	2050	 1	 0.0	 0.0	 0.0	 -64.0	 1	    1.02955	  -19.61385	 20.0	 1	    1.50000	    0.80000;
	39	 1	 70.9	 -2.3	 0.0	 0.0	 1	    1.03367	  -18.98748	 225.0	 1	    1.08889	    0.96889;
	40	 1	 136.2	 -10.7	 0.0	 0.0	 1	    1.03850	  -16.21298	 380.0	 1	    1.10526	    1.00000;
	41	 1	 64.6	 17.3	 0.0	 0.0	 1	    1.04066	  -17.12927	 225.0	 1	    1.08889	    0.93333;
	42	 1	 13.4	 3.3	 0.0	 0.0	 1	    1.03107	  -22.53014	 225.0	 1	    1.08889	    0.88889;
	43	 1	 33.3	 4.7	 0.0	 0.0	 1	    1.03090	  -22.57389	 225.0	 1	    1.08889	    0.88889;
	44	 1	 211.6	 -1.3	 0.0	 0.0	 1	    1.05770	   -4.24664	 225.0	 1	    1.08496	    1.00444;
	45	 1	 92.1	 -9.1	 0.0	 0.0	 1	    1.04921	  -15.94557	 225.0	 1	    1.08889	    1.00444;
	46	 2	 0.0	 0.0	 0.0	 0.0	 1	    1.07103	    5.85219	 150.0	 1	    1.10843	    0.90000;
	47	 1	 0.0	 0.0	 0.0	 0.0	 1	    1.02810	  -18.71733	 225.0	 1	    1.08889	    1.00444;
	48	 1	 0.0	 0.0	 0.0	 0.0	 1	    1.02810	  -18.71733	 225.0	 1	    1.08889	    1.00444;
	49	 1	 63.7	 84.5	 0.0	 -80.0	 1	    1.02810	  -18.71733	 225.0	 1	    1.08889	    1.00444;
	50	 1	 10.4	 6.6	 0.0	 0.0	 1	    1.03943	  -16.46245	 225.0	 1	    1.08889	    1.00444;
	51	 1	 0.0	 0.0	 0.0	 0.0	 1	    1.03950	   -4.49144	 225.0	 1	    1.08889	    1.00000;
	52	 1	 68.7	 16.5	 0.0	 0.0	 1	    1.02337	  -23.05738	 225.0	 1	    1.08889	    0.88889;
	53	 1	 101.2	 15.9	 0.0	 0.0	 1	    1.01678	  -20.73425	 225.0	 1	    1.08889	    0.96889;
	54	 1	 0.0	 0.0	 0.0	 0.0	 1	    1.01887	  -18.89012	 380.0	 1	    1.10526	    1.00000;
	55	 1	 28.9	 10.6	 0.0	 0.0	 1	    1.03562	   -3.71139	 225.0	 1	    1.08444	    1.00889;
	56	 1	 28.2	 2.1	 0.0	 0.0	 1	    1.03581	   -3.71278	 225.0	 1	    1.08444	    1.00889;
	1827	 1	 109.6	 -12.9	 0.0	 0.0	 1	    1.04567	  -12.22830	 225.0	 1	    1.08889	    1.00444;
	57	 1	 27.3	 -10.9	 0.0	 0.0	 1	    1.05606	   -4.98501	 225.0	 1	    1.08945	    0.93333;
	58	 2	 0.0	 0.0	 0.0	 0.0	 1	    1.06965	    5.63392	 150.0	 1	    1.10862	    0.90000;
	59	 1	 36.8	 20.3	 0.0	 0.0	 1	    1.03974	   -1.24446	 225.0	 1	    1.08444	    1.00889;
	60	 1	 36.5	 30.8	 0.0	 0.0	 1	    1.03957	   -1.24244	 225.0	 1	    1.08444	    1.00889;
	61	 1	 0.0	 0.0	 0.0	 0.0	 1	    1.04066	   -1.57398	 225.0	 1	    1.08889	    0.97778;
	62	 1	 8.4	 -0.3	 0.0	 0.0	 1	    1.03171	  -20.67789	 225.0	 1	    1.08889	    0.88889;
	63	 1	 13.2	 -6.3	 0.0	 0.0	 1	    1.07280	  -13.91557	 225.0	 1	    1.08889	    0.93333;
	64	 1	 13.2	 3.3	 0.0	 0.0	 1	    1.02108	  -19.33681	 225.0	 1	    1.08889	    1.00444;
	65	 1	 22.7	 2.5	 0.0	 0.0	 1	    1.05085	  -16.50921	 225.0	 1	    1.08889	    1.00444;
	66	 1	 11.4	 -9.7	 0.0	 0.0	 1	    1.04199	   -4.77557	 225.0	 1	    1.08889	    1.00000;
	67	 1	 10.2	 -1.3	 0.0	 0.0	 1	    1.04503	  -16.89682	 225.0	 1	    1.08889	    0.98667;
	68	 1	 0.0	 0.0	 0.0	 0.0	 1	    1.03325	  -22.30943	 225.0	 1	    1.08889	    0.88889;
	69	 1	 0.0	 0.0	 0.0	 0.0	 1	    1.02787	  -22.56905	 225.0	 1	    1.08889	    0.88889;
	70	 1	 0.0	 0.0	 0.0	 0.0	 1	    1.03584	  -20.83253	 380.0	 1	    1.10526	    1.01316;
	71	 1	 39.2	 2.8	 0.0	 0.0	 1	    1.03622	  -19.16053	 225.0	 1	    1.08889	    1.00444;
	72	 1	 19.3	 3.3	 0.0	 -80.0	 1	    1.03493	  -18.52041	 225.0	 1	    1.08889	    1.00444;
	73	 1	 0.0	 0.0	 0.0	 0.0	 1	    1.04204	   -3.49924	 225.0	 1	    1.08889	    0.97778;
	74	 1	 0.0	 0.0	 0.0	 0.0	 1	    1.04204	   -3.49830	 225.0	 1	    1.08889	    0.97778;
	75	 1	 131.9	 3.2	 0.0	 0.0	 1	    1.04110	   -3.98249	 225.0	 1	    1.08444	    1.00889;
	76	 1	 0.0	 0.0	 0.0	 0.0	 1	    1.05339	   -0.06818	 225.0	 1	    1.08444	    1.00444;
	77	 1	 0.0	 0.0	 0.0	 0.0	 1	    1.04926	    4.79751	 380.0	 1	    1.10263	    1.04211;
	78	 1	 94.6	 -1.9	 0.0	 0.0	 1	    1.05331	   -0.11719	 225.0	 1	    1.08444	    1.00444;
	79	 1	 -1.7	 -4.6	 0.0	 0.0	 1	    1.02203	  -19.10353	 225.0	 1	    1.08936	    1.00444;
	80	 1	 3.6	 -7.2	 0.0	 0.0	 1	    1.02203	  -19.10763	 225.0	 1	    1.08936	    1.00444;
	81	 1	 35.4	 10.9	 0.0	 0.0	 1	    1.03027	  -20.75501	 225.0	 1	    1.08889	    0.88889;
	82	 1	 15.1	 0.7	 0.0	 0.0	 1	    1.03023	  -21.15629	 225.0	 1	    1.08124	    0.95000;
	83	 1	 57.4	 18.0	 0.0	 0.0	 1	    1.03273	  -19.05641	 225.0	 1	    1.08889	    0.88889;
	84	 1	 89.9	 -5.8	 0.0	 0.0	 1	    1.05120	   -1.55825	 225.0	 1	    1.08889	    1.00000;
	85	 1	 0.0	 0.0	 0.0	 0.0	 1	    1.03568	   -7.57433	 225.0	 1	    1.08889	    1.00000;
	86	 1	 239.8	 17.5	 0.0	 0.0	 1	    1.07409	   -7.56167	 380.0	 1	    1.10526	    1.05070;
	87	 1	 35.5	 16.0	 0.0	 0.0	 1	    1.05727	   -7.92880	 225.0	 1	    1.08889	    1.00000;
	88	 1	 76.1	 23.0	 0.0	 0.0	 1	    1.05692	   -5.53434	 225.0	 1	    1.08889	    1.00000;
	89	 2	 0.0	 0.0	 0.0	 0.0	 1	    1.02050	   -9.31704	 150.0	 1	    1.10000	    0.90000;
	90	 1	 21.3	 12.0	 0.0	 0.0	 1	    1.02087	  -18.51245	 225.0	 1	    1.08889	    0.98667;
	91	 1	 11.2	 -5.2	 0.0	 0.0	 1	    1.03535	   -5.79478	 225.0	 1	    1.08444	    1.00889;
	92	 1	 0.0	 0.0	 0.0	 0.0	 1	    1.04623	  -10.37466	 380.0	 1	    1.10526	    1.04211;
	93	 1	 0.0	 0.0	 0.0	 0.0	 1	    1.04613	  -10.35950	 380.0	 1	    1.10526	    1.04211;
	96	 1	 11.7	 1.3	 0.0	 0.0	 1	    1.05223	   -1.48183	 225.0	 1	    1.08889	    1.00000;
	97	 1	 6.1	 1.4	 0.0	 0.0	 1	    1.04963	  -12.69982	 225.0	 1	    1.08889	    1.00444;
	98	 1	 31.6	 2.6	 0.0	 0.0	 1	    1.05706	    2.89907	 150.0	 1	    1.10000	    0.90000;
	99	 1	 68.9	 -11.7	 0.0	 0.0	 1	    1.05855	   -6.83248	 225.0	 1	    1.08889	    1.00000;
	100	 2	 0.2	 -0.0	 0.0	 0.0	 1	    1.03538	  -18.98236	 225.0	 1	    1.08294	    0.95000;
	101	 1	 0.0	 0.0	 0.0	 0.0	 1	    1.06239	  -14.42626	 225.0	 1	    1.08889	    0.93333;
	102	 1	 0.0	 0.0	 0.0	 0.0	 1	    1.05811	  -12.34489	 380.0	 1	    1.10526	    1.03947;
	103	 1	 0.0	 0.0	 0.0	 0.0	 1	    1.04249	  -12.59487	 380.0	 1	    1.10526	    1.03947;
	104	 1	 0.0	 0.0	 0.0	 0.0	 1	    1.04431	  -18.38029	 225.0	 1	    1.08889	    1.00444;
	1828	 1	 30.1	 3.8	 0.0	 0.0	 1	    1.03546	  -20.43773	 225.0	 1	    1.08889	    1.00444;
	105	 1	 0.0	 0.0	 0.0	 0.0	 1	    1.02034	  -19.93813	 225.0	 1	    1.08889	    0.98667;
	106	 1	 12.1	 4.5	 0.0	 0.0	 1	    1.04416	  -18.38859	 225.0	 1	    1.08889	    1.00444;
	107	 1	 106.1	 -0.3	 0.0	 0.0	 1	    1.03486	  -11.59843	 225.0	 1	    1.08889	    0.93333;
	108	 1	 0.0	 0.0	 0.0	 0.0	 1	    1.05099	   -9.73347	 380.0	 1	    1.10526	    1.03947;
	109	 1	 43.3	 8.4	 0.0	 0.0	 1	    1.05384	    0.11485	 225.0	 1	    1.08889	    1.00000;
	110	 1	 33.2	 -7.5	 0.0	 0.0	 1	    1.05081	  -15.45087	 225.0	 1	    1.08986	    1.00444;
	111	 1	 99.5	 -12.4	 0.0	 0.0	 1	    1.07263	   -8.78632	 225.0	 1	    1.09612	    1.00000;
	112	 1	 116.4	 -6.7	 0.0	 0.0	 1	    1.03556	  -19.62131	 225.0	 1	    1.08889	    0.98667;
	113	 1	 65.7	 14.7	 0.0	 0.0	 1	    1.05072	  -16.45685	 225.0	 1	    1.09036	    1.00444;
	114	 1	 107.2	 21.2	 0.0	 0.0	 1	    1.02319	  -23.15607	 225.0	 1	    1.08889	    0.92444;
	115	 1	 56.9	 -2.7	 0.0	 0.0	 1	    1.03929	  -16.34782	 225.0	 1	    1.09614	    0.98667;
	117	 1	 0.0	 0.0	 0.0	 0.0	 1	    1.04431	  -15.54547	 380.0	 1	    1.10526	    1.03947;
	119	 1	 123.6	 -19.8	 0.0	 0.0	 1	    1.02033	   -4.34451	 225.0	 1	    1.08444	    1.00444;
	2051	 1	 0.0	 0.0	 0.0	 -64.0	 1	    1.00894	  -14.41677	 20.0	 1	    1.40000	    0.80000;
	120	 1	 33.3	 -21.3	 0.0	 0.0	 1	    1.05946	  -14.14531	 225.0	 1	    1.08444	    1.00889;
	121	 1	 0.0	 0.0	 0.0	 0.0	 1	    1.05618	  -11.89835	 380.0	 1	    1.10263	    1.02895;
	122	 1	 1.7	 -4.4	 0.0	 0.0	 1	    1.03540	  -11.61485	 225.0	 1	    1.08889	    0.93333;
	123	 1	 140.3	 17.3	 0.0	 0.0	 1	    1.02233	  -13.43699	 225.0	 1	    1.08889	    0.93333;
	124	 1	 33.7	 -1.8	 0.0	 0.0	 1	    1.07697	  -13.67909	 63.0	 1	    1.07937	    0.92063;
	125	 2	 0.0	 0.0	 0.0	 0.0	 1	    1.04112	   -6.83994	 225.0	 1	    1.07476	    0.95000;
	126	 1	 -1.9	 -5.4	 0.0	 0.0	 1	    1.05956	    7.70911	 225.0	 1	    1.09768	    1.00000;
	127	 1	 0.0	 0.0	 0.0	 0.0	 1	    1.05406	    7.74728	 380.0	 1	    1.10526	    1.05263;
	128	 1	 0.0	 0.0	 0.0	 0.0	 1	    1.05419	    7.75075	 380.0	 1	    1.10526	    1.05263;
	129	 1	 0.0	 0.0	 0.0	 0.0	 1	    1.05418	    7.75446	 380.0	 1	    1.10526	    1.05263;
	130	 1	 0.0	 0.0	 0.0	 0.0	 1	    1.05419	    7.73826	 380.0	 1	    1.10526	    1.05263;
	131	 1	 0.0	 0.0	 0.0	 0.0	 1	    1.03916	  -16.26542	 225.0	 1	    1.09645	    0.98667;
	132	 1	 0.0	 0.0	 0.0	 0.0	 1	    1.03920	  -16.23754	 225.0	 1	    1.09645	    0.98667;
	133	 1	 0.0	 0.0	 0.0	 0.0	 1	    1.04364	  -15.40380	 380.0	 1	    1.10526	    1.03947;
	134	 1	 77.3	 -10.6	 0.0	 0.0	 1	    1.03405	  -20.36852	 225.0	 1	    1.08889	    0.96889;
	135	 1	 28.1	 3.8	 0.0	 0.0	 1	    1.06094	  -15.12486	 225.0	 1	    1.08444	    1.00889;
	136	 1	 -5.2	 -9.4	 0.0	 0.0	 1	    1.05194	  -15.96885	 380.0	 1	    1.10526	    1.03947;
	137	 1	 106.4	 8.0	 0.0	 0.0	 1	    1.04417	  -12.17208	 225.0	 1	    1.08889	    0.93333;
	138	 1	 0.0	 0.0	 0.0	 0.0	 1	    1.04108	   -8.79280	 380.0	 1	    1.10526	    1.03947;
	140	 1	 113.7	 -8.3	 0.0	 0.0	 1	    1.03028	   -4.05485	 225.0	 1	    1.08444	    1.00889;
	141	 1	 44.6	 0.5	 0.0	 0.0	 1	    1.03320	   -4.02358	 225.0	 1	    1.08444	    1.00889;
	142	 1	 165.2	 -11.8	 0.0	 0.0	 1	    1.03977	    2.09503	 225.0	 1	    1.08444	    1.00444;
	143	 1	 29.2	 2.1	 0.0	 0.0	 1	    1.04684	  -12.57082	 225.0	 1	    1.08889	    0.93333;
	144	 1	 32.8	 4.4	 0.0	 0.0	 1	    1.04682	  -12.57531	 225.0	 1	    1.08889	    0.93333;
	145	 1	 19.0	 -18.1	 0.0	 0.0	 1	    1.05080	  -15.43451	 225.0	 1	    1.08952	    1.00444;
	146	 1	 0.0	 0.0	 0.0	 0.0	 1	    1.05299	   -5.65978	 225.0	 1	    1.09478	    1.00000;
	147	 1	 0.0	 0.0	 0.0	 0.0	 1	    1.05299	   -5.65976	 225.0	 1	    1.09478	    1.00000;
	148	 1	 37.1	 5.6	 0.0	 0.0	 1	    1.05127	   -1.26756	 225.0	 1	    1.08889	    1.00000;
	149	 1	 20.0	 -3.9	 0.0	 0.0	 1	    1.04962	  -12.62430	 225.0	 1	    1.08889	    1.00444;
	150	 1	 38.1	 1.6	 0.0	 0.0	 1	    1.02477	   -5.94696	 225.0	 1	    1.08444	    1.00889;
	151	 1	 24.8	 -1.8	 0.0	 0.0	 1	    1.05023	   -2.11434	 225.0	 1	    1.08889	    1.00000;
	152	 1	 0.0	 0.0	 0.0	 0.0	 1	    1.04772	   -9.08468	 225.0	 1	    1.08444	    1.00889;
	153	 1	 0.0	 0.0	 0.0	 0.0	 1	    1.04771	   -9.08839	 225.0	 1	    1.08444	    1.00889;
	154	 1	 0.0	 0.0	 0.0	 0.0	 1	    1.04647	   -4.26133	 225.0	 1	    1.08444	    1.00889;
	155	 1	 0.0	 0.0	 0.0	 0.0	 1	    1.04945	   -3.22628	 380.0	 1	    1.10263	    1.02895;
	156	 1	 155.3	 26.5	 0.0	 0.0	 1	    1.03490	  -18.60785	 225.0	 1	    1.08889	    0.88889;
	157	 1	 0.0	 0.0	 0.0	 0.0	 1	    1.05955	    7.70925	 225.0	 1	    1.09766	    1.00000;
	158	 1	 0.0	 0.0	 0.0	 0.0	 1	    1.05414	    7.67004	 380.0	 1	    1.10526	    1.05263;
	159	 1	 21.5	 4.4	 0.0	 0.0	 1	    1.04500	  -17.88294	 225.0	 1	    1.08889	    0.98667;
	160	 1	 26.2	 2.1	 0.0	 0.0	 1	    1.05554	   -6.32195	 225.0	 1	    1.08889	    1.00000;
	161	 1	 0.0	 0.0	 0.0	 0.0	 1	    1.05287	  -10.40574	 225.0	 1	    1.08444	    1.00444;
	162	 1	 0.0	 0.0	 0.0	 0.0	 1	    1.05287	  -10.40574	 225.0	 1	    1.08444	    1.00444;
	163	 1	 0.0	 0.0	 0.0	 0.0	 1	    1.05287	  -10.40593	 225.0	 1	    1.08444	    1.00444;
	164	 1	 55.3	 -11.4	 0.0	 0.0	 1	    1.05286	  -10.40571	 225.0	 1	    1.08444	    1.00444;
	165	 1	 0.0	 0.0	 0.0	 0.0	 1	    1.01798	  -13.12654	 225.0	 1	    1.08889	    0.93333;
	166	 1	 30.0	 12.3	 0.0	 0.0	 1	    1.03473	  -16.60611	 225.0	 1	    1.08889	    0.98667;
	2019	 1	 0.0	 0.0	 0.0	 -64.0	 1	    0.96441	   -6.25393	 20.0	 1	    1.40000	    0.90000;
	167	 1	 0.0	 0.0	 0.0	 0.0	 1	    1.04976	   -5.81530	 225.0	 1	    1.08941	    1.00000;
	168	 1	 0.0	 0.0	 0.0	 0.0	 1	    1.05813	   -2.93890	 380.0	 1	    1.10526	    1.05263;
	169	 2	 0.0	 0.0	 0.0	 0.0	 1	    1.06602	  -14.28034	 225.0	 1	    1.10000	    0.90000;
	170	 1	 17.8	 2.6	 0.0	 0.0	 1	    1.03303	  -14.26924	 150.0	 1	    1.08000	    0.96667;
	171	 1	 25.3	 -3.2	 0.0	 0.0	 1	    1.03573	  -18.92551	 225.0	 1	    1.08889	    1.00444;
	172	 1	 -3.7	 -2.0	 0.0	 0.0	 1	    1.03608	  -18.88267	 225.0	 1	    1.08889	    1.00444;
	173	 1	 37.3	 0.7	 0.0	 0.0	 1	    1.02455	  -20.26362	 225.0	 1	    1.08889	    0.88889;
	181	 1	 107.9	 3.9	 0.0	 0.0	 1	    1.05023	   -2.09232	 225.0	 1	    1.08889	    1.00000;
	182	 1	 29.5	 6.8	 0.0	 0.0	 1	    1.03809	  -18.81993	 225.0	 1	    1.08889	    0.98667;
	183	 1	 0.0	 0.0	 0.0	 0.0	 1	    1.03947	   -7.65593	 380.0	 1	    1.10526	    1.03947;
	184	 1	 0.0	 0.0	 0.0	 0.0	 1	    1.04069	   -7.22805	 380.0	 1	    1.10526	    1.03947;
	185	 1	 0.0	 0.0	 0.0	 0.0	 1	    1.04058	   -7.23136	 380.0	 1	    1.10526	    1.03947;
	186	 1	 0.0	 0.0	 0.0	 0.0	 1	    1.03964	   -7.70297	 380.0	 1	    1.10526	    1.03947;
	187	 1	 28.1	 -10.0	 0.0	 0.0	 1	    1.03484	  -21.22096	 225.0	 1	    1.08889	    0.92444;
	188	 1	 -2.0	 -1.1	 0.0	 0.0	 1	    1.03459	  -22.82947	 225.0	 1	    1.08889	    0.98667;
	189	 1	 65.8	 19.1	 0.0	 0.0	 1	    1.04035	   -9.46298	 225.0	 1	    1.08444	    1.00444;
	190	 1	 -2.3	 1.2	 0.0	 0.0	 1	    1.04559	   -8.71116	 380.0	 1	    1.10263	    1.04211;
	191	 1	 -2.3	 1.4	 0.0	 0.0	 1	    1.04565	   -8.71595	 380.0	 1	    1.10263	    1.04211;
	192	 1	 0.0	 0.0	 0.0	 0.0	 1	    1.03597	  -19.30222	 225.0	 1	    1.08889	    1.00444;
	193	 1	 0.0	 0.0	 0.0	 0.0	 1	    1.05027	   -3.95280	 225.0	 1	    1.08889	    0.97778;
	194	 1	 0.0	 0.0	 0.0	 0.0	 1	    1.05027	   -3.95288	 225.0	 1	    1.08889	    0.97778;
	195	 1	 83.6	 -8.6	 0.0	 0.0	 1	    1.03322	  -20.94850	 225.0	 1	    1.08889	    0.96889;
	196	 1	 0.0	 0.0	 0.0	 0.0	 1	    1.03060	   -7.66710	 225.0	 1	    1.08889	    0.93333;
	197	 1	 0.0	 0.0	 0.0	 0.0	 1	    1.03063	   -7.64262	 225.0	 1	    1.08889	    0.93333;
	198	 1	 57.5	 10.2	 0.0	 0.0	 1	    1.04426	   -4.52116	 225.0	 1	    1.08444	    1.00444;
	199	 1	 177.4	 -31.4	 0.0	 0.0	 1	    1.05440	   -2.07958	 225.0	 1	    1.08444	    1.00444;
	200	 1	 0.0	 0.0	 0.0	 0.0	 1	    1.03975	   -4.44396	 225.0	 1	    1.08889	    0.97778;
	201	 1	 0.0	 0.0	 0.0	 0.0	 1	    1.04444	   -5.43666	 225.0	 1	    1.08444	    1.00444;
	202	 1	 124.2	 -3.2	 0.0	 0.0	 1	    1.03605	  -21.49733	 225.0	 1	    1.08889	    0.95111;
	203	 1	 35.3	 1.9	 0.0	 0.0	 1	    1.03544	  -18.48447	 225.0	 1	    1.08889	    1.00444;
	204	 1	 51.6	 -4.0	 0.0	 0.0	 1	    1.03540	  -22.85599	 225.0	 1	    1.08889	    0.98667;
	2086	 1	 0.0	 0.0	 0.0	 -64.0	 1	    1.00349	  -14.88776	 20.0	 1	    1.40000	    0.80000;
	205	 1	 16.9	 -1.8	 0.0	 0.0	 1	    1.05248	  -14.49128	 225.0	 1	    1.08444	    1.00889;
	206	 1	 0.0	 0.0	 0.0	 0.0	 1	    1.05564	  -12.68513	 380.0	 1	    1.10263	    1.02895;
	207	 1	 38.6	 -0.7	 0.0	 0.0	 1	    1.03542	  -18.58558	 225.0	 1	    1.08889	    1.00444;
	1829	 2	 0.0	 0.0	 0.0	 0.0	 1	    1.02875	  -20.24439	 225.0	 1	    1.07859	    0.95000;
	208	 1	 0.0	 0.0	 0.0	 0.0	 1	    1.02873	  -20.24687	 225.0	 1	    1.08889	    0.88889;
	209	 1	 171.1	 24.7	 0.0	 0.0	 1	    1.04395	   -1.93758	 225.0	 1	    1.08444	    1.00444;
	210	 1	 46.3	 14.3	 0.0	 0.0	 1	    1.03353	  -18.74068	 225.0	 1	    1.09504	    0.98667;
	211	 1	 58.6	 9.8	 0.0	 0.0	 1	    1.04262	   -4.74665	 225.0	 1	    1.08444	    1.00889;
	212	 1	 14.6	 -0.7	 0.0	 0.0	 1	    1.04319	   -4.26185	 225.0	 1	    1.08444	    1.00889;
	213	 1	 75.4	 25.3	 0.0	 0.0	 1	    1.02884	   -8.00386	 225.0	 1	    1.08889	    0.93333;
	215	 1	 0.0	 0.0	 0.0	 0.0	 1	    1.05019	   -4.12913	 380.0	 1	    1.10526	    1.03947;
	216	 1	 74.9	 -2.9	 0.0	 0.0	 1	    1.05413	  -16.50621	 380.0	 1	    1.10526	    1.03947;
	217	 1	 0.0	 0.0	 0.0	 0.0	 1	    1.03048	   -7.68225	 225.0	 1	    1.08889	    0.93333;
	218	 1	 0.0	 0.0	 0.0	 0.0	 1	    1.03048	   -7.68016	 225.0	 1	    1.08889	    0.93333;
	219	 1	 55.6	 14.5	 0.0	 0.0	 1	    1.03909	   -1.31800	 225.0	 1	    1.08444	    1.00889;
	220	 1	 -0.1	 0.8	 0.0	 0.0	 1	    1.03949	   -1.26281	 225.0	 1	    1.08444	    1.00889;
	221	 1	 11.0	 -0.4	 0.0	 0.0	 1	    1.04374	   -3.86080	 225.0	 1	    1.08444	    1.00889;
	222	 1	 39.3	 5.6	 0.0	 0.0	 1	    1.04134	   -7.67867	 225.0	 1	    1.08889	    1.00444;
	223	 1	 21.6	 1.4	 0.0	 0.0	 1	    1.04260	   -4.70465	 225.0	 1	    1.08444	    1.00889;
	224	 1	 16.7	 2.3	 0.0	 0.0	 1	    1.04297	   -4.66163	 225.0	 1	    1.08444	    1.00889;
	225	 1	 2.0	 -1.4	 0.0	 0.0	 1	    1.03674	  -21.33848	 150.0	 1	    1.10667	    0.94667;
	1830	 1	 0.0	 0.0	 0.0	 0.0	 1	    1.06321	   -8.75591	 225.0	 1	    1.08444	    1.00444;
	226	 1	 0.0	 0.0	 0.0	 0.0	 1	    1.06100	   -5.57138	 380.0	 1	    1.10263	    1.04211;
	227	 1	 119.3	 -16.4	 0.0	 0.0	 1	    1.07124	   -8.05964	 225.0	 1	    1.09795	    1.00000;
	228	 1	 0.0	 0.0	 0.0	 0.0	 1	    1.05835	   -4.69956	 380.0	 1	    1.10526	    1.05019;
	229	 1	 72.1	 6.0	 0.0	 0.0	 1	    1.03420	  -20.98095	 225.0	 1	    1.08889	    0.91111;
	230	 1	 0.0	 0.0	 0.0	 0.0	 1	    1.03783	  -19.01711	 380.0	 1	    1.10526	    1.00000;
	231	 1	 16.1	 1.9	 0.0	 0.0	 1	    1.04431	  -18.38195	 225.0	 1	    1.08889	    1.00444;
	232	 1	 14.9	 0.9	 0.0	 0.0	 1	    1.03549	  -20.43467	 225.0	 1	    1.08889	    1.00444;
	233	 1	 6.1	 1.7	 0.0	 0.0	 1	    1.04658	  -17.52956	 225.0	 1	    1.08889	    0.98667;
	234	 1	 1.1	 1.7	 0.0	 0.0	 1	    1.04662	  -17.51334	 225.0	 1	    1.08889	    0.98667;
	235	 1	 2.0	 -3.9	 0.0	 0.0	 1	    1.04789	  -16.07205	 225.0	 1	    1.08889	    1.00444;
	236	 1	 2.6	 2.4	 0.0	 0.0	 1	    1.04769	  -16.07062	 225.0	 1	    1.08889	    1.00444;
	237	 1	 129.0	 -3.4	 0.0	 0.0	 1	    1.03842	  -19.24383	 225.0	 1	    1.08889	    1.00444;
	238	 1	 0.0	 0.0	 0.0	 0.0	 1	    1.04083	  -19.02251	 225.0	 1	    1.08889	    1.00444;
	239	 1	 25.8	 4.4	 0.0	 0.0	 1	    1.04806	  -16.75905	 225.0	 1	    1.08889	    1.00444;
	240	 1	 31.9	 3.6	 0.0	 0.0	 1	    1.04776	  -16.78494	 225.0	 1	    1.08889	    1.00444;
	241	 2	 4.3	 -1.0	 0.0	 0.0	 1	    0.96891	   -2.86477	 20.0	 1	    1.10000	    0.90000;
	242	 1	 0.0	 0.0	 0.0	 0.0	 1	    1.04761	   -5.59195	 150.0	 1	    1.08000	    0.96667;
	243	 1	 -3.4	 -9.5	 0.0	 0.0	 1	    1.04191	  -14.42001	 380.0	 1	    1.11402	    1.03947;
	244	 1	 30.9	 7.4	 0.0	 0.0	 1	    1.04604	  -15.78152	 380.0	 1	    1.11482	    1.03947;
	245	 1	 11.7	 0.6	 0.0	 0.0	 1	    1.03957	  -14.59212	 380.0	 1	    1.11264	    1.03947;
	246	 1	 -18.3	 -23.8	 0.0	 0.0	 1	    1.03947	  -14.50935	 380.0	 1	    1.11483	    1.03947;
	247	 1	 45.0	 5.3	 0.0	 0.0	 1	    1.03521	  -19.03351	 225.0	 1	    1.08889	    1.00444;
	2029	 1	 0.0	 0.0	 0.0	 -64.0	 1	    0.96885	   -5.31334	 20.0	 1	    1.40000	    0.90000;
	2030	 1	 0.0	 0.0	 0.0	 -64.0	 1	    0.96750	   -5.34657	 20.0	 1	    1.40000	    0.90000;
	248	 1	 0.0	 0.0	 0.0	 0.0	 1	    1.05607	   -5.20221	 225.0	 1	    1.08889	    1.00000;
	249	 1	 0.0	 0.0	 0.0	 0.0	 1	    1.05590	   -5.24627	 225.0	 1	    1.08889	    1.00000;
	250	 1	 0.0	 0.0	 0.0	 0.0	 1	    1.07348	   -4.20019	 380.0	 1	    1.10526	    1.05019;
	251	 1	 0.7	 -3.7	 0.0	 0.0	 1	    1.02903	   -8.00724	 225.0	 1	    1.08889	    0.93333;
	252	 1	 92.9	 -6.0	 0.0	 0.0	 1	    1.04855	  -16.47631	 380.0	 1	    1.10526	    1.03537;
	2025	 1	 0.0	 0.0	 0.0	 -58.0	 1	    0.98059	  -18.24026	 20.0	 1	    1.40000	    0.90000;
	2031	 1	 0.0	 0.0	 0.0	 -128.0	 1	    0.94859	  -17.51441	 20.0	 1	    1.40000	    0.90000;
	2032	 1	 0.0	 0.0	 0.0	 -58.0	 1	    0.97219	  -17.75142	 20.0	 1	    1.40000	    0.90000;
	2046	 1	 0.0	 0.0	 0.0	 -58.0	 1	    0.97526	  -17.85339	 20.0	 1	    1.40000	    0.90000;
	253	 1	 3.2	 -0.8	 0.0	 0.0	 1	    1.03637	  -16.95924	 225.0	 1	    1.08889	    1.00444;
	254	 1	 3.9	 3.0	 0.0	 0.0	 1	    1.03905	  -17.06552	 225.0	 1	    1.08889	    1.00444;
	255	 1	 0.0	 0.0	 0.0	 0.0	 1	    1.04469	  -15.93716	 225.0	 1	    1.08889	    1.00444;
	257	 1	 0.0	 0.0	 0.0	 0.0	 1	    1.04225	  -13.95569	 380.0	 1	    1.10526	    1.04211;
	258	 1	 0.0	 0.0	 0.0	 0.0	 1	    1.04211	  -14.07428	 380.0	 1	    1.10526	    1.04211;
	259	 1	 106.5	 20.7	 0.0	 0.0	 1	    1.03705	  -21.50451	 225.0	 1	    1.08889	    0.92889;
	260	 1	 157.5	 -28.3	 0.0	 0.0	 1	    1.05415	  -16.51646	 380.0	 1	    1.10526	    1.03947;
	261	 1	 91.4	 -3.2	 0.0	 0.0	 1	    1.02774	    0.38290	 225.0	 1	    1.08444	    1.00444;
	262	 1	 5.5	 -1.3	 0.0	 0.0	 1	    1.02991	   -8.12063	 225.0	 1	    1.08889	    0.93333;
	263	 1	 208.0	 14.9	 0.0	 0.0	 1	    1.04181	   -7.80242	 380.0	 1	    1.10526	    1.03947;
	267	 1	 250.6	 22.2	 0.0	 0.0	 1	    1.04154	   -5.68693	 225.0	 1	    1.08444	    1.00444;
	268	 1	 0.0	 0.0	 0.0	 0.0	 1	    1.04211	   -2.17972	 380.0	 1	    1.10263	    1.04211;
	269	 1	 0.0	 0.0	 0.0	 0.0	 1	    1.04212	   -2.17605	 380.0	 1	    1.10263	    1.04211;
	270	 2	 46.4	 27.4	 0.0	 0.0	 1	    1.02385	  -20.70916	 20.0	 1	    1.06846	    0.95000;
	271	 1	 0.0	 0.0	 0.0	 0.0	 1	    1.02967	  -20.88275	 225.0	 1	    1.08889	    0.98667;
	272	 1	 159.3	 40.7	 0.0	 0.0	 1	    1.03033	  -17.14402	 225.0	 1	    1.08889	    0.98667;
	273	 1	 203.1	 3.9	 0.0	 0.0	 1	    1.05379	    1.15018	 380.0	 1	    1.10263	    1.04211;
	274	 1	 50.0	 8.3	 0.0	 0.0	 1	    1.04662	  -19.27114	 225.0	 1	    1.09611	    0.98667;
	275	 1	 17.6	 -2.4	 0.0	 0.0	 1	    1.04957	  -13.88949	 225.0	 1	    1.08889	    1.00444;
	276	 1	 22.7	 -2.9	 0.0	 0.0	 1	    1.02818	  -18.80787	 225.0	 1	    1.08889	    1.00444;
	278	 1	 0.0	 0.0	 0.0	 0.0	 1	    1.06386	  -10.81760	 20.0	 1	    1.40000	    0.90000;
	279	 1	 36.2	 -22.3	 0.0	 0.0	 1	    1.05352	  -10.33540	 225.0	 1	    1.08889	    0.93333;
	280	 1	 169.5	 24.1	 0.0	 0.0	 1	    1.04545	   -8.09085	 380.0	 1	    1.10526	    1.03947;
	281	 1	 0.0	 0.0	 0.0	 0.0	 1	    1.04788	   -6.51169	 225.0	 1	    1.08959	    1.00000;
	282	 1	 0.0	 0.0	 0.0	 0.0	 1	    1.04998	   -5.81801	 225.0	 1	    1.08959	    1.00000;
	283	 1	 0.0	 0.0	 0.0	 0.0	 1	    1.01770	   -9.77241	 150.0	 1	    1.08000	    0.96667;
	284	 1	 25.8	 -6.7	 0.0	 0.0	 1	    1.04982	  -16.33578	 225.0	 1	    1.08889	    1.00444;
	285	 1	 65.6	 -1.0	 0.0	 0.0	 1	    1.03926	  -16.75667	 225.0	 1	    1.08889	    1.00444;
	286	 1	 52.2	 0.8	 0.0	 0.0	 1	    1.05384	  -16.94619	 225.0	 1	    1.08889	    0.93333;
	287	 1	 19.7	 -0.8	 0.0	 0.0	 1	    1.03520	   -8.59967	 225.0	 1	    1.08444	    1.00444;
	288	 1	 17.6	 2.0	 0.0	 0.0	 1	    1.03520	   -8.59940	 225.0	 1	    1.08444	    1.00444;
	289	 1	 58.8	 -0.8	 0.0	 0.0	 1	    1.04024	  -16.19714	 225.0	 1	    1.08889	    1.00444;
	2062	 1	 0.0	 0.0	 0.0	 -64.0	 1	    0.97983	  -16.88411	 20.0	 1	    1.40000	    0.90000;
	290	 1	 108.4	 -13.2	 0.0	 0.0	 1	    1.03910	  -16.49085	 225.0	 1	    1.08889	    1.00444;
	291	 1	 0.0	 0.0	 0.0	 0.0	 1	    1.04587	  -14.64542	 380.0	 1	    1.10526	    1.04211;
	292	 1	 0.0	 0.0	 0.0	 0.0	 1	    1.04611	  -14.69041	 380.0	 1	    1.10526	    1.04211;
	293	 1	 0.0	 0.0	 0.0	 0.0	 1	    1.05127	  -14.18627	 380.0	 1	    1.10526	    1.04211;
	294	 1	 0.0	 0.0	 0.0	 0.0	 1	    1.04599	  -14.66792	 380.0	 1	    1.10526	    1.04211;
	295	 1	 160.9	 1.6	 0.0	 0.0	 1	    1.02795	   -0.18159	 225.0	 1	    1.08444	    1.00444;
	296	 1	 0.0	 0.0	 0.0	 0.0	 1	    1.03886	  -18.08249	 380.0	 1	    1.10526	    1.00000;
	297	 1	 34.4	 6.6	 0.0	 0.0	 1	    1.05066	  -16.41663	 225.0	 1	    1.08889	    1.00444;
	298	 1	 0.0	 0.0	 0.0	 0.0	 1	    1.02775	  -18.88752	 225.0	 1	    1.08889	    1.00444;
	299	 1	 0.0	 0.0	 0.0	 0.0	 1	    1.04462	   -9.89133	 380.0	 1	    1.10526	    1.03947;
	300	 1	 0.0	 0.0	 0.0	 0.0	 1	    1.04913	    4.84628	 380.0	 1	    1.10263	    1.04211;
	301	 1	 0.0	 0.0	 0.0	 0.0	 1	    1.04917	    4.84728	 380.0	 1	    1.10263	    1.04211;
	302	 1	 0.0	 0.0	 0.0	 0.0	 1	    1.04918	    4.84731	 380.0	 1	    1.10263	    1.04211;
	303	 1	 184.2	 -18.9	 0.0	 0.0	 1	    1.04329	   -2.52448	 225.0	 1	    1.08444	    1.00444;
	304	 1	 -15.6	 -17.2	 0.0	 0.0	 1	    1.03547	  -14.56223	 380.0	 1	    1.11618	    1.00000;
	305	 1	 -23.2	 0.6	 0.0	 0.0	 1	    1.03777	  -15.16089	 380.0	 1	    1.11703	    1.00000;
	306	 1	 42.2	 -0.7	 0.0	 0.0	 1	    1.02580	  -21.56474	 225.0	 1	    1.08889	    0.88889;
	2047	 1	 0.0	 0.0	 0.0	 -64.0	 1	    0.97298	  -16.43987	 20.0	 1	    1.40000	    0.90000;
	307	 1	 0.0	 0.0	 0.0	 0.0	 1	    1.04069	  -15.72983	 225.0	 1	    1.08889	    1.00444;
	308	 1	 0.0	 0.0	 0.0	 0.0	 1	    1.04457	  -12.93070	 380.0	 1	    1.10526	    1.04211;
	309	 1	 96.9	 -28.2	 0.0	 0.0	 1	    1.05937	   -1.39975	 225.0	 1	    1.09445	    1.00000;
	310	 1	 -1.7	 -3.4	 0.0	 0.0	 1	    1.04211	    9.36409	 380.0	 1	    1.10263	    1.04211;
	311	 1	 -10.7	 -3.4	 0.0	 0.0	 1	    1.04211	    9.33739	 380.0	 1	    1.10263	    1.04211;