%%%%%%%%%%%%%%%%%%%%%%%%%%%%%%%%%%%%%%%%%%%%%%%%%%%%%%%%%%%%%%%%%%%%%%%%%%%
%%%%                                                                  %%%%%
%%%%    IEEE PES Power Grid Library - Optimal Power Flow - v19.05     %%%%%
%%%%          (https://github.com/power-grid-lib/pglib-opf)           %%%%%
%%%%               Benchmark Group - Typical Operations               %%%%%
%%%%                         10 - May - 2019                          %%%%%
%%%%                                                                  %%%%%
%%%%%%%%%%%%%%%%%%%%%%%%%%%%%%%%%%%%%%%%%%%%%%%%%%%%%%%%%%%%%%%%%%%%%%%%%%%
%
%   A 2312 bus model created by the Sustainable Data Evolution Technology (SDET)
%   tool.
%
%   https://egriddata.org/group/sustainable-data-evolution-technology-sdet
%
%   Developed by Renke Huang
%   Provided in the public domain. May, 2018
%
function mpc = pglib_opf_case2316_sdet
mpc.version = '2';
mpc.baseMVA = 100.0;

%% bus data
%	bus_i	type	Pd	Qd	Gs	Bs	area	Vm	Va	baseKV	zone	Vmax	Vmin
mpc.bus = [
	1	 1	 0.0	 0.0	 0.0	 0.0	 1	    1.00000	    0.00000	 345.0	 1	    1.10000	    0.90000;
	2	 1	 0.0	 0.0	 0.0	 -7.13	 1	    1.00000	    0.00000	 345.0	 1	    1.10000	    0.90000;
	3	 1	 2.78	 1.91	 0.0	 0.0	 1	    1.00000	    0.00000	 345.0	 1	    1.10000	    0.90000;
	4	 1	 0.0	 0.0	 0.0	 -9.6	 1	    1.00000	    0.00000	 345.0	 1	    1.10000	    0.90000;
	5	 1	 0.0	 0.0	 0.0	 0.0	 1	    1.00000	    0.00000	 345.0	 1	    1.10000	    0.90000;
	6	 1	 0.0	 0.0	 0.0	 41.99	 1	    1.00000	    0.00000	 345.0	 1	    1.10000	    0.90000;
	7	 1	 0.0	 0.0	 0.0	 0.0	 1	    1.00000	    0.00000	 345.0	 1	    1.10000	    0.90000;
	8	 1	 0.0	 0.0	 0.0	 0.0	 1	    1.00000	    0.00000	 345.0	 1	    1.10000	    0.90000;
	9	 2	 221.28	 -103.64	 0.0	 0.0	 1	    1.00000	    0.00000	 345.0	 1	    1.10000	    0.90000;
	10	 2	 41.52	 73.01	 0.0	 -0.23	 1	    1.00000	    0.00000	 345.0	 1	    1.10000	    0.90000;
	11	 2	 12.51	 7.51	 0.0	 -0.24	 1	    1.00000	    0.00000	 138.0	 1	    1.10000	    0.90000;
	12	 2	 20.99	 10.69	 0.0	 -0.53	 1	    1.00000	    0.00000	 138.0	 1	    1.10000	    0.90000;
	13	 1	 6.33	 2.49	 0.0	 0.0	 1	    1.00000	    0.00000	 138.0	 1	    1.10000	    0.90000;
	14	 1	 20.44	 7.84	 0.0	 0.0	 1	    1.00000	    0.00000	 138.0	 1	    1.10000	    0.90000;
	15	 1	 0.43	 0.1	 0.0	 0.0	 1	    1.00000	    0.00000	 138.0	 1	    1.10000	    0.90000;
	16	 1	 0.0	 0.0	 0.0	 0.0	 1	    1.00000	    0.00000	 138.0	 1	    1.10000	    0.90000;
	17	 1	 10.68	 4.62	 0.0	 0.0	 1	    1.00000	    0.00000	 138.0	 1	    1.10000	    0.90000;
	18	 1	 2.46	 0.8	 0.0	 0.0	 1	    1.00000	    0.00000	 138.0	 1	    1.10000	    0.90000;
	19	 1	 1.5	 0.5	 0.0	 0.0	 1	    1.00000	    0.00000	 138.0	 1	    1.10000	    0.90000;
	20	 2	 20.54	 -35.59	 0.0	 0.0	 1	    1.00000	    0.00000	 138.0	 1	    1.10000	    0.90000;
	21	 1	 14.57	 3.1	 0.0	 0.0	 1	    1.00000	    0.00000	 138.0	 1	    1.10000	    0.90000;
	22	 1	 0.0	 0.0	 0.0	 0.0	 1	    1.00000	    0.00000	 138.0	 1	    1.10000	    0.90000;
	23	 1	 42.51	 -12.87	 0.0	 0.0	 1	    1.00000	    0.00000	 138.0	 1	    1.10000	    0.90000;
	24	 2	 8.54	 5.02	 0.0	 0.0	 1	    1.00000	    0.00000	 138.0	 1	    1.10000	    0.90000;
	25	 2	 0.0	 -0.4	 0.0	 0.0	 1	    1.00000	    0.00000	 138.0	 1	    1.10000	    0.90000;
	26	 2	 35.41	 12.61	 0.0	 -0.32	 1	    1.00000	    0.00000	 138.0	 1	    1.10000	    0.90000;
	27	 1	 4.49	 1.5	 0.0	 0.0	 1	    1.00000	    0.00000	 138.0	 1	    1.10000	    0.90000;
	28	 1	 0.0	 0.0	 0.0	 0.0	 1	    1.00000	    0.00000	 138.0	 1	    1.10000	    0.90000;
	29	 1	 9.51	 3.71	 0.0	 0.0	 1	    1.00000	    0.00000	 138.0	 1	    1.10000	    0.90000;
	30	 1	 0.0	 0.0	 0.0	 0.0	 1	    1.00000	    0.00000	 138.0	 1	    1.10000	    0.90000;
	31	 1	 4.91	 1.71	 0.0	 0.0	 1	    1.00000	    0.00000	 138.0	 1	    1.10000	    0.90000;
	32	 2	 7.05	 3.51	 0.0	 -1.31	 1	    1.00000	    0.00000	 138.0	 1	    1.10000	    0.90000;
	33	 1	 7.05	 4.62	 0.0	 0.0	 1	    1.00000	    0.00000	 138.0	 1	    1.10000	    0.90000;
	34	 1	 0.0	 0.0	 0.0	 0.0	 1	    1.00000	    0.00000	 138.0	 1	    1.10000	    0.90000;
	35	 1	 1.6	 0.5	 0.0	 0.0	 1	    1.00000	    0.00000	 138.0	 1	    1.10000	    0.90000;
	36	 1	 0.0	 0.0	 0.0	 0.0	 1	    1.00000	    0.00000	 138.0	 1	    1.10000	    0.90000;
	37	 1	 0.0	 0.0	 0.0	 0.0	 1	    1.00000	    0.00000	 138.0	 1	    1.10000	    0.90000;
	38	 1	 0.0	 0.0	 0.0	 0.0	 1	    1.00000	    0.00000	 138.0	 1	    1.10000	    0.90000;
	39	 1	 4.71	 0.48	 0.0	 -0.49	 1	    1.00000	    0.00000	 138.0	 1	    1.10000	    0.90000;
	40	 1	 0.0	 0.0	 0.0	 0.0	 1	    1.00000	    0.00000	 138.0	 1	    1.10000	    0.90000;
	41	 1	 1.71	 0.6	 0.0	 0.0	 1	    1.00000	    0.00000	 138.0	 1	    1.10000	    0.90000;
	42	 1	 6.09	 0.9	 0.0	 0.0	 1	    1.00000	    0.00000	 138.0	 1	    1.10000	    0.90000;
	43	 1	 0.0	 0.0	 0.0	 3.71	 1	    1.00000	    0.00000	 138.0	 1	    1.10000	    0.90000;
	44	 1	 15.85	 8.31	 0.0	 0.0	 1	    1.00000	    0.00000	 138.0	 1	    1.10000	    0.90000;
	45	 1	 4.95	 2.28	 0.0	 0.0	 1	    1.00000	    0.00000	 138.0	 1	    1.10000	    0.90000;
	46	 2	 37.19	 15.6	 0.0	 -0.35	 1	    1.00000	    0.00000	 138.0	 1	    1.10000	    0.90000;
	47	 1	 11.71	 4.19	 0.0	 0.0	 1	    1.00000	    0.00000	 138.0	 1	    1.10000	    0.90000;
	48	 1	 0.0	 0.15	 0.0	 0.0	 1	    1.00000	    0.00000	 138.0	 1	    1.10000	    0.90000;
	49	 1	 17.92	 4.21	 0.0	 -4.15	 1	    1.00000	    0.00000	 138.0	 1	    1.10000	    0.90000;
	50	 1	 0.0	 0.0	 0.0	 0.0	 1	    1.00000	    0.00000	 138.0	 1	    1.10000	    0.90000;
	51	 1	 0.0	 0.0	 0.0	 0.0	 1	    1.00000	    0.00000	 138.0	 1	    1.10000	    0.90000;
	52	 1	 18.59	 5.92	 0.0	 0.0	 1	    1.00000	    0.00000	 138.0	 1	    1.10000	    0.90000;
	53	 2	 7.92	 3.22	 0.0	 -61.98	 1	    1.00000	    0.00000	 138.0	 1	    1.10000	    0.90000;
	54	 1	 3.85	 2.11	 0.0	 0.0	 1	    1.00000	    0.00000	 138.0	 1	    1.10000	    0.90000;
	55	 1	 0.32	 0.0	 0.0	 0.0	 1	    1.00000	    0.00000	 138.0	 1	    1.10000	    0.90000;
	56	 1	 7.07	 2.62	 0.0	 0.0	 1	    1.00000	    0.00000	 138.0	 1	    1.10000	    0.90000;
	57	 1	 4.17	 1.49	 0.0	 0.0	 1	    1.00000	    0.00000	 138.0	 1	    1.10000	    0.90000;
	58	 1	 49.85	 -5.88	 0.0	 0.0	 1	    1.00000	    0.00000	 138.0	 1	    1.10000	    0.90000;
	59	 1	 6.63	 2.23	 0.0	 0.0	 1	    1.00000	    0.00000	 138.0	 1	    1.10000	    0.90000;
	60	 1	 1.5	 0.4	 0.0	 0.0	 1	    1.00000	    0.00000	 138.0	 1	    1.10000	    0.90000;
	61	 1	 8.98	 24.27	 0.0	 0.0	 1	    1.00000	    0.00000	 138.0	 1	    1.10000	    0.90000;
	62	 1	 0.0	 0.0	 0.0	 0.0	 1	    1.00000	    0.00000	 138.0	 1	    1.10000	    0.90000;
	63	 1	 4.7	 1.55	 0.0	 0.0	 1	    1.00000	    0.00000	 138.0	 1	    1.10000	    0.90000;
	64	 1	 2.35	 0.8	 0.0	 0.0	 1	    1.00000	    0.00000	 138.0	 1	    1.10000	    0.90000;
	65	 1	 2.14	 0.7	 0.0	 0.0	 1	    1.00000	    0.00000	 138.0	 1	    1.10000	    0.90000;
	66	 1	 7.39	 2.73	 0.0	 0.0	 1	    1.00000	    0.00000	 138.0	 1	    1.10000	    0.90000;
	67	 2	 9.65	 3.73	 0.0	 3.71	 1	    1.00000	    0.00000	 138.0	 1	    1.10000	    0.90000;
	68	 2	 17.2	 33.81	 0.0	 0.0	 1	    1.00000	    0.00000	 138.0	 1	    1.10000	    0.90000;
	69	 1	 0.0	 0.0	 0.0	 -0.29	 1	    1.00000	    0.00000	 138.0	 1	    1.10000	    0.90000;
	70	 1	 25.0	 7.0	 0.0	 0.0	 1	    1.00000	    0.00000	 138.0	 1	    1.10000	    0.90000;
	71	 1	 0.0	 0.0	 0.0	 0.0	 2	    1.00000	    0.00000	 345.0	 2	    1.10000	    0.90000;
	72	 1	 0.0	 0.0	 0.0	 0.0	 2	    1.00000	    0.00000	 345.0	 2	    1.10000	    0.90000;
	73	 1	 0.0	 0.0	 0.0	 0.0	 2	    1.00000	    0.00000	 345.0	 2	    1.10000	    0.90000;
	74	 1	 0.0	 0.0	 0.0	 0.0	 2	    1.00000	    0.00000	 345.0	 2	    1.10000	    0.90000;
	75	 2	 12.0	 30.0	 0.0	 0.0	 2	    1.00000	    0.00000	 345.0	 2	    1.10000	    0.90000;
	76	 2	 19.91	 36.57	 0.0	 0.0	 2	    1.00000	    0.00000	 345.0	 2	    1.10000	    0.90000;
	77	 2	 12.0	 30.0	 0.0	 0.0	 2	    1.00000	    0.00000	 500.0	 2	    1.10000	    0.90000;
	78	 2	 0.0	 0.0	 0.0	 14.58	 2	    1.00000	    0.00000	 345.0	 2	    1.10000	    0.90000;
	79	 1	 0.0	 0.0	 0.0	 0.0	 2	    1.00000	    0.00000	 345.0	 2	    1.10000	    0.90000;
	80	 1	 0.0	 0.0	 0.0	 0.0	 2	    1.00000	    0.00000	 345.0	 2	    1.10000	    0.90000;
	81	 1	 0.0	 0.0	 0.0	 0.0	 2	    1.00000	    0.00000	 345.0	 2	    1.10000	    0.90000;
	82	 1	 0.0	 0.0	 0.0	 0.0	 2	    1.00000	    0.00000	 345.0	 2	    1.10000	    0.90000;
	83	 1	 11.45	 2.64	 0.0	 0.0	 2	    1.00000	    0.00000	 138.0	 2	    1.10000	    0.90000;
	84	 1	 25.91	 6.42	 0.0	 0.0	 2	    1.00000	    0.00000	 138.0	 2	    1.10000	    0.90000;
	85	 1	 0.0	 0.0	 0.0	 0.0	 2	    1.00000	    0.00000	 138.0	 2	    1.10000	    0.90000;
	86	 1	 6.04	 2.42	 0.0	 6.32	 2	    1.00000	    0.00000	 138.0	 2	    1.10000	    0.90000;
	87	 1	 3.02	 1.27	 0.0	 0.0	 2	    1.00000	    0.00000	 138.0	 2	    1.10000	    0.90000;
	88	 1	 6.63	 0.64	 0.0	 0.0	 2	    1.00000	    0.00000	 138.0	 2	    1.10000	    0.90000;
	89	 1	 12.49	 4.85	 0.0	 0.0	 2	    1.00000	    0.00000	 138.0	 2	    1.10000	    0.90000;
	90	 2	 3.63	 0.53	 0.0	 -0.02	 2	    1.00000	    0.00000	 138.0	 2	    1.10000	    0.90000;
	91	 1	 3.54	 1.16	 0.0	 0.0	 2	    1.00000	    0.00000	 138.0	 2	    1.10000	    0.90000;
	92	 2	 19.22	 32.9	 0.0	 0.0	 2	    1.00000	    0.00000	 138.0	 2	    1.10000	    0.90000;
	93	 1	 0.0	 0.0	 0.0	 0.0	 2	    1.00000	    0.00000	 138.0	 2	    1.10000	    0.90000;
	94	 1	 2.29	 0.84	 0.0	 0.0	 2	    1.00000	    0.00000	 138.0	 2	    1.10000	    0.90000;
	95	 2	 4.69	 1.91	 0.0	 3.0	 2	    1.00000	    0.00000	 138.0	 2	    1.10000	    0.90000;
	96	 2	 0.1	 -0.79	 0.0	 0.0	 2	    1.00000	    0.00000	 138.0	 2	    1.10000	    0.90000;
	97	 1	 5.57	 1.97	 0.0	 0.0	 2	    1.00000	    0.00000	 138.0	 2	    1.10000	    0.90000;
	98	 2	 20.23	 25.52	 0.0	 0.0	 2	    1.00000	    0.00000	 138.0	 2	    1.10000	    0.90000;
	99	 2	 12.57	 9.27	 0.0	 0.0	 2	    1.00000	    0.00000	 138.0	 2	    1.10000	    0.90000;
	100	 1	 12.91	 4.74	 0.0	 0.0	 2	    1.00000	    0.00000	 138.0	 2	    1.10000	    0.90000;
	101	 1	 9.37	 3.79	 0.0	 0.0	 2	    1.00000	    0.00000	 138.0	 2	    1.10000	    0.90000;
	102	 1	 14.16	 5.69	 0.0	 0.0	 2	    1.00000	    0.00000	 138.0	 2	    1.10000	    0.90000;
	103	 1	 11.4	 3.74	 0.0	 0.0	 2	    1.00000	    0.00000	 138.0	 2	    1.10000	    0.90000;
	104	 1	 10.41	 3.8	 0.0	 0.0	 2	    1.00000	    0.00000	 138.0	 2	    1.10000	    0.90000;
	105	 1	 0.0	 0.0	 0.0	 0.42	 2	    1.00000	    0.00000	 138.0	 2	    1.10000	    0.90000;
	106	 1	 0.0	 0.0	 0.0	 0.0	 2	    1.00000	    0.00000	 138.0	 2	    1.10000	    0.90000;
	107	 1	 5.49	 0.64	 0.0	 0.0	 2	    1.00000	    0.00000	 138.0	 2	    1.10000	    0.90000;
	108	 1	 6.87	 2.0	 0.0	 0.0	 2	    1.00000	    0.00000	 138.0	 2	    1.10000	    0.90000;
	109	 1	 5.62	 2.32	 0.0	 0.0	 2	    1.00000	    0.00000	 138.0	 2	    1.10000	    0.90000;
	110	 1	 4.16	 1.69	 0.0	 0.0	 2	    1.00000	    0.00000	 138.0	 2	    1.10000	    0.90000;
	111	 1	 1.46	 0.53	 0.0	 0.0	 2	    1.00000	    0.00000	 138.0	 2	    1.10000	    0.90000;
	112	 2	 1.79	 0.76	 0.0	 0.42	 2	    1.00000	    0.00000	 138.0	 2	    1.10000	    0.90000;
	113	 1	 1.67	 0.74	 0.0	 0.0	 2	    1.00000	    0.00000	 138.0	 2	    1.10000	    0.90000;
	114	 1	 3.11	 0.86	 0.0	 0.0	 2	    1.00000	    0.00000	 138.0	 2	    1.10000	    0.90000;
	115	 1	 4.77	 0.54	 0.0	 0.0	 2	    1.00000	    0.00000	 138.0	 2	    1.10000	    0.90000;
	116	 1	 7.08	 1.79	 0.0	 0.0	 2	    1.00000	    0.00000	 138.0	 2	    1.10000	    0.90000;
	117	 1	 11.45	 4.64	 0.0	 6.66	 2	    1.00000	    0.00000	 138.0	 2	    1.10000	    0.90000;
	118	 1	 8.43	 3.37	 0.0	 0.0	 2	    1.00000	    0.00000	 138.0	 2	    1.10000	    0.90000;
	119	 1	 6.77	 -1.7	 0.0	 0.0	 2	    1.00000	    0.00000	 138.0	 2	    1.10000	    0.90000;
	120	 2	 21.87	 12.66	 0.0	 0.0	 2	    1.00000	    0.00000	 138.0	 2	    1.10000	    0.90000;
	121	 1	 24.98	 23.19	 0.0	 0.0	 2	    1.00000	    0.00000	 138.0	 2	    1.10000	    0.90000;
	122	 1	 14.57	 4.22	 0.0	 0.0	 2	    1.00000	    0.00000	 138.0	 2	    1.10000	    0.90000;
	123	 1	 16.13	 4.74	 0.0	 0.0	 2	    1.00000	    0.00000	 138.0	 2	    1.10000	    0.90000;
	124	 2	 5.34	 1.77	 0.0	 0.0	 2	    1.00000	    0.00000	 138.0	 2	    1.10000	    0.90000;
	125	 2	 5.67	 5.84	 0.0	 0.0	 2	    1.00000	    0.00000	 138.0	 2	    1.10000	    0.90000;
	126	 1	 7.7	 3.16	 0.0	 0.0	 2	    1.00000	    0.00000	 138.0	 2	    1.10000	    0.90000;
	127	 2	 0.0	 0.0	 0.0	 0.0	 2	    1.00000	    0.00000	 138.0	 2	    1.10000	    0.90000;
	128	 2	 7.4	 2.54	 0.0	 0.0	 2	    1.00000	    0.00000	 138.0	 2	    1.10000	    0.90000;
	129	 1	 1.2	 0.47	 0.0	 0.0	 2	    1.00000	    0.00000	 138.0	 2	    1.10000	    0.90000;
	130	 1	 5.72	 2.32	 0.0	 0.0	 2	    1.00000	    0.00000	 138.0	 2	    1.10000	    0.90000;
	131	 1	 5.83	 2.32	 0.0	 0.0	 2	    1.00000	    0.00000	 138.0	 2	    1.10000	    0.90000;
	132	 1	 6.25	 1.74	 0.0	 0.0	 2	    1.00000	    0.00000	 138.0	 2	    1.10000	    0.90000;
	133	 1	 6.25	 1.74	 0.0	 0.0	 2	    1.00000	    0.00000	 138.0	 2	    1.10000	    0.90000;
	134	 1	 0.63	 0.21	 0.0	 0.0	 2	    1.00000	    0.00000	 138.0	 2	    1.10000	    0.90000;
	135	 2	 13.13	 5.28	 0.0	 0.0	 2	    1.00000	    0.00000	 138.0	 2	    1.10000	    0.90000;
	136	 2	 9.37	 3.61	 0.0	 0.0	 2	    1.00000	    0.00000	 138.0	 2	    1.10000	    0.90000;
	137	 1	 4.68	 1.9	 0.0	 0.0	 2	    1.00000	    0.00000	 138.0	 2	    1.10000	    0.90000;
	138	 2	 6.46	 2.54	 0.0	 4.2	 2	    1.00000	    0.00000	 138.0	 2	    1.10000	    0.90000;
	139	 1	 21.76	 6.1	 0.0	 0.0	 2	    1.00000	    0.00000	 138.0	 2	    1.10000	    0.90000;
	140	 1	 2.08	 0.84	 0.0	 0.0	 2	    1.00000	    0.00000	 138.0	 2	    1.10000	    0.90000;
	141	 1	 2.71	 1.05	 0.0	 0.0	 2	    1.00000	    0.00000	 138.0	 2	    1.10000	    0.90000;
	142	 1	 4.06	 0.53	 0.0	 0.0	 2	    1.00000	    0.00000	 138.0	 2	    1.10000	    0.90000;
	143	 1	 0.0	 0.0	 0.0	 0.0	 2	    1.00000	    0.00000	 138.0	 2	    1.10000	    0.90000;
	144	 1	 0.0	 0.0	 0.0	 0.0	 2	    1.00000	    0.00000	 138.0	 2	    1.10000	    0.90000;
	145	 1	 0.0	 0.0	 0.0	 0.0	 2	    1.00000	    0.00000	 138.0	 2	    1.10000	    0.90000;
	146	 1	 8.43	 3.06	 0.0	 0.0	 2	    1.00000	    0.00000	 138.0	 2	    1.10000	    0.90000;
	147	 1	 3.75	 0.84	 0.0	 0.0	 2	    1.00000	    0.00000	 138.0	 2	    1.10000	    0.90000;
	148	 1	 28.21	 10.33	 0.0	 0.0	 2	    1.00000	    0.00000	 138.0	 2	    1.10000	    0.90000;
	149	 1	 1.56	 0.63	 0.0	 0.0	 2	    1.00000	    0.00000	 138.0	 2	    1.10000	    0.90000;
	150	 2	 634.0	 0.0	 0.0	 0.0	 2	    1.00000	    0.00000	 345.0	 2	    1.10000	    0.90000;
	151	 1	 81.5	 85.9	 0.0	 0.0	 3	    1.00000	    0.00000	 345.0	 3	    1.10000	    0.90000;
	152	 1	 0.0	 0.0	 0.0	 0.0	 3	    1.00000	    0.00000	 500.0	 3	    1.10000	    0.90000;
	153	 2	 0.0	 0.0	 0.0	 -11.35	 3	    1.00000	    0.00000	 500.0	 3	    1.10000	    0.90000;
	154	 1	 0.0	 0.0	 0.0	 0.0	 3	    1.00000	    0.00000	 500.0	 3	    1.10000	    0.90000;
	155	 1	 0.0	 0.0	 0.0	 0.0	 3	    1.00000	    0.00000	 500.0	 3	    1.10000	    0.90000;
	156	 1	 0.0	 0.0	 0.0	 75.29	 3	    1.00000	    0.00000	 500.0	 3	    1.10000	    0.90000;
	157	 2	 0.0	 0.0	 0.0	 -27.07	 3	    1.00000	    0.00000	 345.0	 3	    1.10000	    0.90000;
	158	 2	 0.0	 0.0	 0.0	 -322.11	 3	    1.00000	    0.00000	 500.0	 3	    1.10000	    0.90000;
	159	 1	 0.0	 0.0	 0.0	 0.0	 3	    1.00000	    0.00000	 500.0	 3	    1.10000	    0.90000;
	160	 1	 0.0	 0.0	 0.0	 0.0	 3	    1.00000	    0.00000	 500.0	 3	    1.10000	    0.90000;
	161	 2	 0.0	 0.0	 0.0	 -124.24	 3	    1.00000	    0.00000	 500.0	 3	    1.10000	    0.90000;
	162	 1	 34.71	 60.16	 0.0	 0.0	 3	    1.00000	    0.00000	 500.0	 3	    1.10000	    0.90000;
	163	 1	 0.0	 0.0	 0.0	 70.0	 3	    1.00000	    0.00000	 500.0	 3	    1.10000	    0.90000;
	164	 1	 0.0	 0.0	 0.0	 0.0	 3	    1.00000	    0.00000	 500.0	 3	    1.10000	    0.90000;
	165	 2	 11.0	 40.0	 0.0	 0.0	 3	    1.00000	    0.00000	 500.0	 3	    1.10000	    0.90000;
	166	 2	 5.0	 10.0	 0.0	 0.0	 3	    1.00000	    0.00000	 500.0	 3	    1.10000	    0.90000;
	167	 1	 6.93	 3.11	 0.0	 0.0	 3	    1.00000	    0.00000	 138.0	 3	    1.10000	    0.90000;
	168	 2	 14.65	 1.0	 0.0	 0.0	 3	    1.00000	    0.00000	 138.0	 3	    1.10000	    0.90000;
	169	 2	 8.14	 1.32	 0.0	 0.0	 3	    1.00000	    0.00000	 138.0	 3	    1.10000	    0.90000;
	170	 1	 14.17	 4.22	 0.0	 0.0	 3	    1.00000	    0.00000	 138.0	 3	    1.10000	    0.90000;
	171	 2	 4.22	 1.0	 0.0	 0.0	 3	    1.00000	    0.00000	 138.0	 3	    1.10000	    0.90000;
	172	 1	 131.91	 57.06	 0.0	 0.0	 3	    1.00000	    0.00000	 138.0	 3	    1.10000	    0.90000;
	173	 1	 0.0	 0.0	 0.0	 48.6	 3	    1.00000	    0.00000	 32.0	 3	    1.10000	    0.90000;
	174	 1	 0.0	 0.0	 0.0	 0.0	 3	    1.00000	    0.00000	 138.0	 3	    1.10000	    0.90000;
	175	 1	 5.22	 2.11	 0.0	 0.0	 3	    1.00000	    0.00000	 138.0	 3	    1.10000	    0.90000;
	176	 1	 2.61	 1.0	 0.0	 0.0	 3	    1.00000	    0.00000	 138.0	 3	    1.10000	    0.90000;
	177	 2	 0.01	 0.01	 0.0	 0.0	 3	    1.00000	    0.00000	 138.0	 3	    1.10000	    0.90000;
	178	 2	 0.01	 0.01	 0.0	 0.0	 3	    1.00000	    0.00000	 138.0	 3	    1.10000	    0.90000;
	179	 1	 15.67	 5.22	 0.0	 0.0	 3	    1.00000	    0.00000	 138.0	 3	    1.10000	    0.90000;
	180	 1	 16.78	 4.72	 0.0	 0.0	 3	    1.00000	    0.00000	 138.0	 3	    1.10000	    0.90000;
	181	 1	 4.22	 0.5	 0.0	 0.0	 3	    1.00000	    0.00000	 138.0	 3	    1.10000	    0.90000;
	182	 1	 10.85	 1.0	 0.0	 0.0	 3	    1.00000	    0.00000	 138.0	 3	    1.10000	    0.90000;
	183	 2	 14.67	 3.11	 0.0	 0.0	 3	    1.00000	    0.00000	 138.0	 3	    1.10000	    0.90000;
	184	 1	 7.54	 1.0	 0.0	 0.0	 3	    1.00000	    0.00000	 138.0	 3	    1.10000	    0.90000;
	185	 2	 2.11	 0.5	 0.0	 0.0	 3	    1.00000	    0.00000	 138.0	 3	    1.10000	    0.90000;
	186	 1	 5.73	 1.0	 0.0	 0.0	 3	    1.00000	    0.00000	 138.0	 3	    1.10000	    0.90000;
	187	 1	 0.0	 0.0	 0.0	 60.0	 3	    1.00000	    0.00000	 16.0	 3	    1.10000	    0.90000;
	188	 2	 9.45	 2.61	 0.0	 0.0	 3	    1.00000	    0.00000	 138.0	 3	    1.10000	    0.90000;
	189	 1	 4.22	 1.0	 0.0	 0.0	 3	    1.00000	    0.00000	 138.0	 3	    1.10000	    0.90000;
	190	 1	 23.11	 8.34	 0.0	 0.0	 3	    1.00000	    0.00000	 138.0	 3	    1.10000	    0.90000;
	191	 1	 15.67	 2.61	 0.0	 0.0	 3	    1.00000	    0.00000	 138.0	 3	    1.10000	    0.90000;
	192	 1	 19.89	 6.83	 0.0	 0.0	 3	    1.00000	    0.00000	 138.0	 3	    1.10000	    0.90000;
	193	 1	 8.34	 2.71	 0.0	 0.0	 3	    1.00000	    0.00000	 138.0	 3	    1.10000	    0.90000;
	194	 2	 16.78	 6.33	 0.0	 0.0	 3	    1.00000	    0.00000	 138.0	 3	    1.10000	    0.90000;
	195	 2	 14.67	 3.11	 0.0	 0.0	 3	    1.00000	    0.00000	 138.0	 3	    1.10000	    0.90000;
	196	 1	 5.8	 -0.22	 0.0	 0.0	 3	    1.00000	    0.00000	 138.0	 3	    1.10000	    0.90000;
	197	 1	 7.33	 2.11	 0.0	 0.0	 3	    1.00000	    0.00000	 138.0	 3	    1.10000	    0.90000;
	198	 1	 5.22	 0.5	 0.0	 0.0	 3	    1.00000	    0.00000	 138.0	 3	    1.10000	    0.90000;
	199	 1	 0.0	 0.0	 0.0	 -16.07	 3	    1.00000	    0.00000	 138.0	 3	    1.10000	    0.90000;
	200	 1	 0.0	 0.0	 0.0	 -2.01	 3	    1.00000	    0.00000	 138.0	 3	    1.10000	    0.90000;
	201	 2	 9.45	 1.0	 0.0	 0.0	 3	    1.00000	    0.00000	 138.0	 3	    1.10000	    0.90000;
	202	 1	 21.52	 0.64	 0.0	 0.0	 3	    1.00000	    0.00000	 138.0	 3	    1.10000	    0.90000;
	203	 1	 10.45	 1.0	 0.0	 0.0	 3	    1.00000	    0.00000	 138.0	 3	    1.10000	    0.90000;
	204	 1	 8.34	 3.11	 0.0	 0.0	 3	    1.00000	    0.00000	 138.0	 3	    1.10000	    0.90000;
	205	 1	 0.0	 0.0	 0.0	 0.0	 3	    1.00000	    0.00000	 138.0	 3	    1.10000	    0.90000;
	206	 1	 14.67	 3.11	 0.0	 0.0	 3	    1.00000	    0.00000	 138.0	 3	    1.10000	    0.90000;
	207	 2	 30.44	 4.22	 0.0	 0.0	 3	    1.00000	    0.00000	 138.0	 3	    1.10000	    0.90000;
	208	 1	 18.89	 4.72	 0.0	 0.0	 3	    1.00000	    0.00000	 138.0	 3	    1.10000	    0.90000;
	209	 2	 11.55	 1.0	 0.0	 0.0	 3	    1.00000	    0.00000	 138.0	 3	    1.10000	    0.90000;
	210	 1	 17.78	 4.22	 0.0	 0.0	 3	    1.00000	    0.00000	 138.0	 3	    1.10000	    0.90000;
	211	 1	 0.0	 0.0	 0.0	 0.0	 3	    1.00000	    0.00000	 138.0	 3	    1.10000	    0.90000;
	212	 1	 0.27	 -1.51	 0.0	 0.0	 3	    1.00000	    0.00000	 138.0	 3	    1.10000	    0.90000;
	213	 1	 3.04	 -0.86	 0.0	 0.0	 3	    1.00000	    0.00000	 138.0	 3	    1.10000	    0.90000;
	214	 1	 0.0	 0.0	 0.0	 -15.19	 3	    1.00000	    0.00000	 138.0	 3	    1.10000	    0.90000;
	215	 1	 0.0	 0.0	 0.0	 -14.11	 3	    1.00000	    0.00000	 138.0	 3	    1.10000	    0.90000;
	216	 1	 0.0	 0.0	 0.0	 0.0	 3	    1.00000	    0.00000	 500.0	 3	    1.10000	    0.90000;
	217	 2	 0.0	 0.0	 0.0	 0.0	 4	    1.00000	    0.00000	 345.0	 4	    1.10000	    0.90000;
	218	 1	 13.38	 129.99	 0.0	 0.0	 4	    1.00000	    0.00000	 345.0	 4	    1.10000	    0.90000;
	219	 1	 0.0	 0.0	 0.0	 0.0	 4	    1.00000	    0.00000	 345.0	 4	    1.10000	    0.90000;
	220	 1	 0.0	 0.0	 0.0	 0.0	 4	    1.00000	    0.00000	 345.0	 4	    1.10000	    0.90000;
	221	 1	 0.0	 0.0	 0.0	 13.92	 4	    1.00000	    0.00000	 345.0	 4	    1.10000	    0.90000;
	222	 1	 97.95	 60.58	 0.0	 0.0	 4	    1.00000	    0.00000	 345.0	 4	    1.10000	    0.90000;
	223	 2	 10.0	 44.0	 0.0	 0.0	 4	    1.00000	    0.00000	 345.0	 4	    1.10000	    0.90000;
	224	 2	 10.0	 44.0	 0.0	 0.0	 4	    1.00000	    0.00000	 345.0	 4	    1.10000	    0.90000;
	225	 2	 18.2	 37.21	 0.0	 -110.36	 4	    1.00000	    0.00000	 345.0	 4	    1.10000	    0.90000;
	226	 1	 0.0	 0.0	 0.0	 -18.63	 4	    1.00000	    0.00000	 345.0	 4	    1.10000	    0.90000;
	227	 2	 0.0	 -0.79	 0.0	 0.0	 4	    1.00000	    0.00000	 345.0	 4	    1.10000	    0.90000;
	228	 2	 0.0	 -0.79	 0.0	 0.0	 4	    1.00000	    0.00000	 345.0	 4	    1.10000	    0.90000;
	229	 1	 3.63	 1.3	 0.0	 0.0	 4	    1.00000	    0.00000	 138.0	 4	    1.10000	    0.90000;
	230	 1	 0.0	 0.0	 0.0	 0.0	 4	    1.00000	    0.00000	 138.0	 4	    1.10000	    0.90000;
	231	 1	 29.4	 -9.75	 0.0	 0.0	 4	    1.00000	    0.00000	 138.0	 4	    1.10000	    0.90000;
	232	 1	 0.0	 0.0	 0.0	 4.35	 4	    1.00000	    0.00000	 138.0	 4	    1.10000	    0.90000;
	233	 1	 10.68	 4.62	 0.0	 0.0	 4	    1.00000	    0.00000	 138.0	 4	    1.10000	    0.90000;
	234	 1	 5.45	 4.11	 0.0	 0.0	 4	    1.00000	    0.00000	 138.0	 4	    1.10000	    0.90000;
	235	 2	 64.56	 15.85	 0.0	 -0.25	 4	    1.00000	    0.00000	 138.0	 4	    1.10000	    0.90000;
	236	 2	 1.6	 -0.54	 0.0	 -0.25	 4	    1.00000	    0.00000	 138.0	 4	    1.10000	    0.90000;
	237	 1	 0.0	 0.0	 0.0	 0.0	 4	    1.00000	    0.00000	 138.0	 4	    1.10000	    0.90000;
	238	 1	 57.0	 19.3	 0.0	 0.0	 4	    1.00000	    0.00000	 138.0	 4	    1.10000	    0.90000;
	239	 1	 0.0	 0.0	 0.0	 0.0	 4	    1.00000	    0.00000	 138.0	 4	    1.10000	    0.90000;
	240	 1	 0.0	 0.0	 0.0	 0.0	 4	    1.00000	    0.00000	 138.0	 4	    1.10000	    0.90000;
	241	 1	 38.7	 7.98	 0.0	 0.0	 4	    1.00000	    0.00000	 138.0	 4	    1.10000	    0.90000;
	242	 1	 1.18	 0.2	 0.0	 0.0	 4	    1.00000	    0.00000	 138.0	 4	    1.10000	    0.90000;
	243	 1	 18.85	 -9.82	 0.0	 0.0	 4	    1.00000	    0.00000	 138.0	 4	    1.10000	    0.90000;
	244	 1	 4.49	 1.5	 0.0	 0.0	 4	    1.00000	    0.00000	 138.0	 4	    1.10000	    0.90000;
	245	 2	 0.0	 0.0	 0.0	 -10.36	 4	    1.00000	    0.00000	 138.0	 4	    1.10000	    0.90000;
	246	 2	 10.0	 44.0	 0.0	 -0.29	 4	    1.00000	    0.00000	 138.0	 4	    1.10000	    0.90000;
	247	 1	 9.51	 3.71	 0.0	 0.0	 4	    1.00000	    0.00000	 138.0	 4	    1.10000	    0.90000;
	248	 2	 0.0	 0.0	 0.0	 0.0	 4	    1.00000	    0.00000	 138.0	 4	    1.10000	    0.90000;
	249	 1	 5.99	 2.04	 0.0	 0.0	 4	    1.00000	    0.00000	 138.0	 4	    1.10000	    0.90000;
	250	 1	 0.0	 0.0	 0.0	 0.0	 4	    1.00000	    0.00000	 138.0	 4	    1.10000	    0.90000;
	251	 1	 7.48	 4.01	 0.0	 0.0	 4	    1.00000	    0.00000	 138.0	 4	    1.10000	    0.90000;
	252	 2	 19.5	 48.0	 0.0	 -0.29	 4	    1.00000	    0.00000	 138.0	 4	    1.10000	    0.90000;
	253	 1	 11.05	 4.3	 0.0	 6.24	 4	    1.00000	    0.00000	 138.0	 4	    1.10000	    0.90000;
	254	 1	 61.19	 -9.58	 0.0	 0.0	 4	    1.00000	    0.00000	 138.0	 4	    1.10000	    0.90000;
	255	 1	 6.33	 2.49	 0.0	 7.31	 4	    1.00000	    0.00000	 138.0	 4	    1.10000	    0.90000;
	256	 1	 2.46	 0.92	 0.0	 0.0	 4	    1.00000	    0.00000	 138.0	 4	    1.10000	    0.90000;
	257	 1	 1.28	 0.3	 0.0	 0.0	 4	    1.00000	    0.00000	 138.0	 4	    1.10000	    0.90000;
	258	 1	 0.0	 0.0	 0.0	 0.0	 4	    1.00000	    0.00000	 138.0	 4	    1.10000	    0.90000;
	259	 1	 6.42	 2.28	 0.0	 0.0	 4	    1.00000	    0.00000	 138.0	 4	    1.10000	    0.90000;
	260	 1	 12.32	 4.77	 0.0	 0.0	 4	    1.00000	    0.00000	 138.0	 4	    1.10000	    0.90000;
	261	 1	 3.52	 1.1	 0.0	 0.0	 4	    1.00000	    0.00000	 138.0	 4	    1.10000	    0.90000;
	262	 1	 0.0	 0.0	 0.0	 0.0	 4	    1.00000	    0.00000	 138.0	 4	    1.10000	    0.90000;
	263	 1	 2.24	 0.7	 0.0	 0.0	 4	    1.00000	    0.00000	 138.0	 4	    1.10000	    0.90000;
	264	 1	 0.0	 0.0	 0.0	 0.0	 4	    1.00000	    0.00000	 138.0	 4	    1.10000	    0.90000;
	265	 1	 5.02	 1.76	 0.0	 0.0	 4	    1.00000	    0.00000	 138.0	 4	    1.10000	    0.90000;
	266	 1	 5.55	 1.91	 0.0	 0.0	 4	    1.00000	    0.00000	 138.0	 4	    1.10000	    0.90000;
	267	 1	 0.0	 0.0	 0.0	 0.0	 4	    1.00000	    0.00000	 138.0	 4	    1.10000	    0.90000;
	268	 1	 18.68	 10.15	 0.0	 0.0	 4	    1.00000	    0.00000	 138.0	 4	    1.10000	    0.90000;
	269	 1	 4.75	 -0.52	 0.0	 0.0	 4	    1.00000	    0.00000	 138.0	 4	    1.10000	    0.90000;
	270	 1	 4.06	 1.3	 0.0	 0.0	 4	    1.00000	    0.00000	 138.0	 4	    1.10000	    0.90000;
	271	 1	 2.99	 0.9	 0.0	 5.93	 4	    1.00000	    0.00000	 138.0	 4	    1.10000	    0.90000;
	272	 1	 0.0	 0.0	 0.0	 0.0	 4	    1.00000	    0.00000	 138.0	 4	    1.10000	    0.90000;
	273	 1	 0.0	 0.0	 0.0	 0.0	 4	    1.00000	    0.00000	 138.0	 4	    1.10000	    0.90000;
	274	 2	 406.0	 0.0	 0.0	 0.0	 4	    1.00000	    0.00000	 345.0	 4	    1.10000	    0.90000;
	275	 1	 0.0	 0.0	 0.0	 84.79	 5	    1.00000	    0.00000	 345.0	 5	    1.10000	    0.90000;
	276	 1	 0.0	 0.0	 0.0	 0.0	 5	    1.00000	    0.00000	 500.0	 5	    1.10000	    0.90000;
	277	 2	 0.0	 0.0	 0.0	 110.69	 5	    1.00000	    0.00000	 500.0	 5	    1.10000	    0.90000;
	278	 1	 0.0	 0.0	 0.0	 0.0	 5	    1.00000	    0.00000	 500.0	 5	    1.10000	    0.90000;
	279	 1	 0.0	 0.0	 0.0	 0.0	 5	    1.00000	    0.00000	 500.0	 5	    1.10000	    0.90000;
	280	 1	 154.6	 71.72	 0.0	 0.0	 5	    1.00000	    0.00000	 500.0	 5	    1.10000	    0.90000;
	281	 2	 0.0	 0.0	 0.0	 2.15	 5	    1.00000	    0.00000	 345.0	 5	    1.10000	    0.90000;
	282	 2	 0.0	 0.0	 0.0	 -373.27	 5	    1.00000	    0.00000	 500.0	 5	    1.10000	    0.90000;
	283	 1	 0.0	 0.0	 0.0	 0.0	 5	    1.00000	    0.00000	 500.0	 5	    1.10000	    0.90000;
	284	 1	 0.0	 0.0	 0.0	 0.0	 5	    1.00000	    0.00000	 500.0	 5	    1.10000	    0.90000;
	285	 2	 0.0	 0.0	 0.0	 -161.35	 5	    1.00000	    0.00000	 500.0	 5	    1.10000	    0.90000;
	286	 1	 86.89	 60.16	 0.0	 0.0	 5	    1.00000	    0.00000	 500.0	 5	    1.10000	    0.90000;
	287	 1	 0.0	 0.0	 0.0	 70.0	 5	    1.00000	    0.00000	 500.0	 5	    1.10000	    0.90000;
	288	 1	 0.0	 0.0	 0.0	 0.0	 5	    1.00000	    0.00000	 500.0	 5	    1.10000	    0.90000;
	289	 2	 11.0	 40.0	 0.0	 0.0	 5	    1.00000	    0.00000	 500.0	 5	    1.10000	    0.90000;
	290	 2	 5.0	 10.0	 0.0	 0.0	 5	    1.00000	    0.00000	 500.0	 5	    1.10000	    0.90000;
	291	 1	 6.93	 3.11	 0.0	 0.0	 5	    1.00000	    0.00000	 138.0	 5	    1.10000	    0.90000;
	292	 2	 14.65	 1.0	 0.0	 0.0	 5	    1.00000	    0.00000	 138.0	 5	    1.10000	    0.90000;
	293	 2	 8.14	 1.32	 0.0	 0.0	 5	    1.00000	    0.00000	 138.0	 5	    1.10000	    0.90000;
	294	 1	 14.17	 4.22	 0.0	 0.0	 5	    1.00000	    0.00000	 138.0	 5	    1.10000	    0.90000;
	295	 2	 4.22	 1.0	 0.0	 0.0	 5	    1.00000	    0.00000	 138.0	 5	    1.10000	    0.90000;
	296	 1	 131.91	 57.06	 0.0	 0.0	 5	    1.00000	    0.00000	 138.0	 5	    1.10000	    0.90000;
	297	 1	 0.0	 0.0	 0.0	 48.6	 5	    1.00000	    0.00000	 32.0	 5	    1.10000	    0.90000;
	298	 1	 0.0	 0.0	 0.0	 0.0	 5	    1.00000	    0.00000	 138.0	 5	    1.10000	    0.90000;
	299	 1	 5.22	 2.11	 0.0	 0.0	 5	    1.00000	    0.00000	 138.0	 5	    1.10000	    0.90000;
	300	 1	 2.61	 1.0	 0.0	 0.0	 5	    1.00000	    0.00000	 138.0	 5	    1.10000	    0.90000;
	301	 2	 0.01	 0.01	 0.0	 0.0	 5	    1.00000	    0.00000	 138.0	 5	    1.10000	    0.90000;
	302	 2	 0.01	 0.01	 0.0	 0.0	 5	    1.00000	    0.00000	 138.0	 5	    1.10000	    0.90000;
	303	 1	 15.67	 5.22	 0.0	 0.0	 5	    1.00000	    0.00000	 138.0	 5	    1.10000	    0.90000;
	304	 1	 16.78	 4.72	 0.0	 0.0	 5	    1.00000	    0.00000	 138.0	 5	    1.10000	    0.90000;
	305	 1	 4.22	 0.5	 0.0	 0.0	 5	    1.00000	    0.00000	 138.0	 5	    1.10000	    0.90000;
	306	 1	 10.85	 1.0	 0.0	 0.0	 5	    1.00000	    0.00000	 138.0	 5	    1.10000	    0.90000;
	307	 2	 14.67	 3.11	 0.0	 0.0	 5	    1.00000	    0.00000	 138.0	 5	    1.10000	    0.90000;
	308	 1	 7.54	 1.0	 0.0	 0.0	 5	    1.00000	    0.00000	 138.0	 5	    1.10000	    0.90000;
	309	 2	 2.11	 0.5	 0.0	 22.81	 5	    1.00000	    0.00000	 138.0	 5	    1.10000	    0.90000;
	310	 1	 5.73	 1.0	 0.0	 0.0	 5	    1.00000	    0.00000	 138.0	 5	    1.10000	    0.90000;
	311	 1	 0.0	 0.0	 0.0	 60.0	 5	    1.00000	    0.00000	 16.0	 5	    1.10000	    0.90000;
	312	 2	 9.45	 2.61	 0.0	 0.0	 5	    1.00000	    0.00000	 138.0	 5	    1.10000	    0.90000;
	313	 1	 4.22	 1.0	 0.0	 0.0	 5	    1.00000	    0.00000	 138.0	 5	    1.10000	    0.90000;
	314	 1	 23.11	 8.34	 0.0	 0.0	 5	    1.00000	    0.00000	 138.0	 5	    1.10000	    0.90000;
	315	 1	 15.67	 2.61	 0.0	 0.0	 5	    1.00000	    0.00000	 138.0	 5	    1.10000	    0.90000;
	316	 1	 19.89	 6.83	 0.0	 0.0	 5	    1.00000	    0.00000	 138.0	 5	    1.10000	    0.90000;