%%%%%%%%%%%%%%%%%%%%%%%%%%%%%%%%%%%%%%%%%%%%%%%%%%%%%%%%%%%%%%%%%%%%%%%%%%%
%%%%                                                                  %%%%%
%%%%    IEEE PES Power Grid Library - Optimal Power Flow - v21.07     %%%%%
%%%%          (https://github.com/power-grid-lib/pglib-opf)           %%%%%
%%%%               Benchmark Group - Typical Operations               %%%%%
%%%%                         29 - July - 2021                         %%%%%
%%%%                                                                  %%%%%
%%%%%%%%%%%%%%%%%%%%%%%%%%%%%%%%%%%%%%%%%%%%%%%%%%%%%%%%%%%%%%%%%%%%%%%%%%%
%
%   A 2853 bus model created by the Sustainable Data Evolution Technology (SDET)
%   tool.
%
%   https://egriddata.org/group/sustainable-data-evolution-technology-sdet
%
%   Developed by Renke Huang,
%   Pacific Northwest National Laboratory, U.S.A.
%   Provided in the public domain. June, 2018
%
function mpc = pglib_opf_case2853_sdet
mpc.version = '2';
mpc.baseMVA = 100.0;

%% bus data
%	bus_i	type	Pd	Qd	Gs	Bs	area	Vm	Va	baseKV	zone	Vmax	Vmin
mpc.bus = [
	1	 1	 0.1	 -1.05	 0.0	 4.11	 1	    1.00000	    0.00000	 138.0	 1	    1.10000	    0.90000;
	2	 2	 0.0	 0.0	 0.0	 0.0	 1	    1.00000	    0.00000	 20.0	 1	    1.10000	    0.90000;
	3	 1	 -7.61	 2.37	 0.0	 0.0	 1	    1.00000	    0.00000	 138.0	 1	    1.10000	    0.90000;
	4	 1	 0.1	 -0.34	 0.0	 0.0	 1	    1.00000	    0.00000	 138.0	 1	    1.10000	    0.90000;
	5	 1	 0.1	 -0.19	 0.0	 0.0	 1	    1.00000	    0.00000	 138.0	 1	    1.10000	    0.90000;
	6	 2	 0.0	 0.0	 0.0	 0.0	 1	    1.00000	    0.00000	 20.0	 1	    1.10000	    0.90000;
	7	 1	 -19.32	 6.4	 0.0	 0.0	 1	    1.00000	    0.00000	 138.0	 1	    1.10000	    0.90000;
	8	 1	 -41.65	 13.4	 0.0	 0.0	 1	    1.00000	    0.00000	 138.0	 1	    1.10000	    0.90000;
	9	 1	 0.1	 -0.24	 0.0	 0.0	 1	    1.00000	    0.00000	 138.0	 1	    1.10000	    0.90000;
	10	 2	 -6.7	 -8.98	 0.0	 0.0	 1	    1.00000	    0.00000	 138.0	 1	    1.10000	    0.90000;
	11	 1	 96.28	 -2.53	 0.0	 0.0	 1	    1.00000	    0.00000	 138.0	 1	    1.10000	    0.90000;
	12	 2	 -10.41	 -7.41	 0.0	 38.43	 1	    1.00000	    0.00000	 138.0	 1	    1.10000	    0.90000;
	13	 1	 0.1	 0.08	 0.0	 0.0	 1	    1.00000	    0.00000	 138.0	 1	    1.10000	    0.90000;
	14	 1	 0.1	 -2.08	 0.0	 0.0	 1	    1.00000	    0.00000	 138.0	 1	    1.10000	    0.90000;
	15	 2	 0.0	 0.0	 0.0	 0.0	 1	    1.00000	    0.00000	 20.0	 1	    1.10000	    0.90000;
	16	 2	 0.0	 0.0	 0.0	 0.0	 1	    1.00000	    0.00000	 20.0	 1	    1.10000	    0.90000;
	17	 2	 0.1	 -1.53	 0.0	 28.75	 1	    1.00000	    0.00000	 138.0	 1	    1.10000	    0.90000;
	18	 1	 119.1	 59.5	 0.0	 21.06	 1	    1.00000	    0.00000	 138.0	 1	    1.10000	    0.90000;
	19	 1	 32.84	 13.07	 0.0	 5.26	 1	    1.00000	    0.00000	 138.0	 1	    1.10000	    0.90000;
	20	 1	 -0.54	 -5.8	 0.0	 0.0	 1	    1.00000	    0.00000	 138.0	 1	    1.10000	    0.90000;
	21	 1	 -10.71	 2.92	 0.0	 0.0	 1	    1.00000	    0.00000	 138.0	 1	    1.10000	    0.90000;
	22	 1	 0.1	 -4.36	 0.0	 0.0	 1	    1.00000	    0.00000	 138.0	 1	    1.10000	    0.90000;
	23	 1	 0.1	 -2.42	 0.0	 0.0	 1	    1.00000	    0.00000	 138.0	 1	    1.10000	    0.90000;
	24	 2	 0.0	 0.0	 0.0	 0.0	 1	    1.00000	    0.00000	 20.0	 1	    1.10000	    0.90000;
	25	 1	 0.1	 -1.09	 0.0	 1.74	 1	    1.00000	    0.00000	 138.0	 1	    1.10000	    0.90000;
	26	 2	 0.0	 0.0	 0.0	 0.0	 1	    1.00000	    0.00000	 20.0	 1	    1.10000	    0.90000;
	27	 2	 0.0	 0.0	 0.0	 0.0	 1	    1.00000	    0.00000	 20.0	 1	    1.10000	    0.90000;
	28	 1	 0.1	 -0.38	 0.0	 0.0	 1	    1.00000	    0.00000	 138.0	 1	    1.10000	    0.90000;
	29	 1	 160.2	 89.9	 0.0	 0.0	 1	    1.00000	    0.00000	 138.0	 1	    1.10000	    0.90000;
	30	 2	 160.2	 88.7	 0.0	 -5.21	 1	    1.00000	    0.00000	 138.0	 1	    1.10000	    0.90000;
	31	 1	 18.45	 9.5	 0.0	 0.0	 1	    1.00000	    0.00000	 138.0	 1	    1.10000	    0.90000;
	32	 1	 -15.12	 4.75	 0.0	 0.0	 1	    1.00000	    0.00000	 138.0	 1	    1.10000	    0.90000;
	33	 1	 0.1	 -1.32	 0.0	 1.08	 1	    1.00000	    0.00000	 138.0	 1	    1.10000	    0.90000;
	34	 2	 0.0	 0.0	 0.0	 0.0	 1	    1.00000	    0.00000	 20.0	 1	    1.10000	    0.90000;
	35	 1	 0.1	 -3.06	 0.0	 0.0	 1	    1.00000	    0.00000	 138.0	 1	    1.10000	    0.90000;
	36	 1	 0.1	 -1.77	 0.0	 0.0	 1	    1.00000	    0.00000	 138.0	 1	    1.10000	    0.90000;
	37	 1	 0.1	 -0.36	 0.0	 0.0	 1	    1.00000	    0.00000	 138.0	 1	    1.10000	    0.90000;
	38	 1	 0.0	 0.0	 0.0	 0.0	 1	    1.00000	    0.00000	 138.0	 1	    1.10000	    0.90000;
	39	 1	 0.1	 -0.35	 0.0	 0.0	 1	    1.00000	    0.00000	 138.0	 1	    1.10000	    0.90000;
	40	 1	 0.12	 0.12	 0.0	 0.0	 1	    1.00000	    0.00000	 138.0	 1	    1.10000	    0.90000;
	41	 1	 0.1	 -1.35	 0.0	 0.0	 1	    1.00000	    0.00000	 138.0	 1	    1.10000	    0.90000;
	42	 1	 -20.12	 5.75	 0.0	 0.0	 1	    1.00000	    0.00000	 138.0	 1	    1.10000	    0.90000;
	43	 1	 0.1	 -3.79	 0.0	 0.58	 1	    1.00000	    0.00000	 138.0	 1	    1.10000	    0.90000;
	44	 2	 0.0	 0.0	 0.0	 0.0	 1	    1.00000	    0.00000	 20.0	 1	    1.10000	    0.90000;
	45	 2	 0.0	 0.0	 0.0	 0.0	 1	    1.00000	    0.00000	 20.0	 1	    1.10000	    0.90000;
	46	 1	 0.0	 0.0	 0.0	 0.0	 1	    1.00000	    0.00000	 138.0	 1	    1.10000	    0.90000;
	47	 1	 0.0	 0.0	 0.0	 0.0	 2	    1.00000	    0.00000	 138.0	 2	    1.10000	    0.90000;
	48	 1	 27.05	 -16.5	 0.0	 0.0	 2	    1.00000	    0.00000	 500.0	 2	    1.10000	    0.90000;
	49	 1	 7.71	 13.11	 0.0	 4.18	 2	    1.00000	    0.00000	 138.0	 2	    1.10000	    0.90000;
	50	 1	 0.0	 0.0	 0.0	 0.02	 2	    1.00000	    0.00000	 138.0	 2	    1.10000	    0.90000;
	51	 1	 0.1	 -0.4	 0.0	 0.0	 2	    1.00000	    0.00000	 138.0	 2	    1.10000	    0.90000;
	52	 1	 0.0	 0.0	 0.0	 0.0	 2	    1.00000	    0.00000	 138.0	 2	    1.10000	    0.90000;
	53	 1	 14.8	 -77.73	 0.0	 44.53	 2	    1.00000	    0.00000	 500.0	 2	    1.10000	    0.90000;
	54	 1	 -15.8	 -10.4	 0.0	 0.0	 2	    1.00000	    0.00000	 138.0	 2	    1.10000	    0.90000;
	55	 1	 -15.92	 4.9	 0.0	 0.0	 2	    1.00000	    0.00000	 138.0	 2	    1.10000	    0.90000;
	56	 1	 69.38	 39.78	 0.0	 19.14	 2	    1.00000	    0.00000	 138.0	 2	    1.10000	    0.90000;
	57	 1	 27.05	 7.96	 0.0	 0.0	 2	    1.00000	    0.00000	 138.0	 2	    1.10000	    0.90000;
	58	 1	 0.0	 0.0	 0.0	 0.0	 2	    1.00000	    0.00000	 138.0	 2	    1.10000	    0.90000;
	59	 1	 24.13	 11.14	 0.0	 0.0	 2	    1.00000	    0.00000	 138.0	 2	    1.10000	    0.90000;
	60	 1	 0.1	 -0.5	 0.0	 0.0	 2	    1.00000	    0.00000	 138.0	 2	    1.10000	    0.90000;
	61	 1	 0.1	 -1.78	 0.0	 6.93	 2	    1.00000	    0.00000	 138.0	 2	    1.10000	    0.90000;
	62	 1	 0.0	 0.0	 0.0	 0.0	 2	    1.00000	    0.00000	 138.0	 2	    1.10000	    0.90000;
	63	 1	 0.1	 -0.74	 0.0	 0.0	 2	    1.00000	    0.00000	 138.0	 2	    1.10000	    0.90000;
	64	 2	 413.0	 -361.88	 0.0	 0.0	 2	    1.00000	    0.00000	 500.0	 2	    1.10000	    0.90000;
	65	 2	 0.0	 0.0	 0.0	 0.0	 2	    1.00000	    0.00000	 20.0	 2	    1.10000	    0.90000;
	66	 1	 0.1	 -0.01	 0.0	 0.0	 2	    1.00000	    0.00000	 138.0	 2	    1.10000	    0.90000;
	67	 1	 5.77	 0.96	 0.0	 0.0	 2	    1.00000	    0.00000	 138.0	 2	    1.10000	    0.90000;
	68	 1	 0.1	 -4.87	 0.0	 0.0	 2	    1.00000	    0.00000	 138.0	 2	    1.10000	    0.90000;
	69	 1	 0.1	 -0.74	 0.0	 -19.16	 2	    1.00000	    0.00000	 138.0	 2	    1.10000	    0.90000;
	70	 1	 0.0	 0.0	 0.0	 0.02	 2	    1.00000	    0.00000	 138.0	 2	    1.10000	    0.90000;
	71	 1	 0.1	 -5.45	 0.0	 0.0	 2	    1.00000	    0.00000	 138.0	 2	    1.10000	    0.90000;
	72	 1	 2.2	 -3.95	 0.0	 0.0	 2	    1.00000	    0.00000	 138.0	 2	    1.10000	    0.90000;
	73	 1	 18.52	 7.09	 0.0	 8.15	 2	    1.00000	    0.00000	 138.0	 2	    1.10000	    0.90000;
	74	 1	 0.0	 0.0	 0.0	 0.0	 2	    1.00000	    0.00000	 138.0	 2	    1.10000	    0.90000;
	75	 1	 29.03	 17.98	 0.0	 3.66	 2	    1.00000	    0.00000	 138.0	 2	    1.10000	    0.90000;
	76	 1	 0.1	 -1.43	 0.0	 0.0	 2	    1.00000	    0.00000	 138.0	 2	    1.10000	    0.90000;
	77	 1	 0.1	 -0.87	 0.0	 2.04	 2	    1.00000	    0.00000	 138.0	 2	    1.10000	    0.90000;
	78	 1	 8.71	 4.56	 0.0	 4.24	 2	    1.00000	    0.00000	 138.0	 2	    1.10000	    0.90000;
	79	 1	 -0.57	 -3.27	 0.0	 0.0	 2	    1.00000	    0.00000	 138.0	 2	    1.10000	    0.90000;
	80	 1	 0.1	 -0.23	 0.0	 0.0	 2	    1.00000	    0.00000	 138.0	 2	    1.10000	    0.90000;
	81	 1	 35.94	 20.67	 0.0	 9.96	 2	    1.00000	    0.00000	 138.0	 2	    1.10000	    0.90000;
	82	 2	 0.0	 0.0	 0.0	 0.0	 2	    1.00000	    0.00000	 20.0	 2	    1.10000	    0.90000;
	83	 1	 0.1	 -2.37	 0.0	 0.0	 2	    1.00000	    0.00000	 138.0	 2	    1.10000	    0.90000;
	84	 1	 0.0	 0.0	 0.0	 0.0	 2	    1.00000	    0.00000	 138.0	 2	    1.10000	    0.90000;
	85	 1	 0.1	 -0.73	 0.0	 0.0	 2	    1.00000	    0.00000	 138.0	 2	    1.10000	    0.90000;
	86	 1	 54.98	 -9.33	 0.0	 10.65	 2	    1.00000	    0.00000	 138.0	 2	    1.10000	    0.90000;
	87	 1	 0.1	 -0.15	 0.0	 0.0	 2	    1.00000	    0.00000	 138.0	 2	    1.10000	    0.90000;
	88	 1	 0.1	 -1.55	 0.0	 0.0	 2	    1.00000	    0.00000	 138.0	 2	    1.10000	    0.90000;
	89	 2	 0.0	 0.0	 0.0	 -8.48	 2	    1.00000	    0.00000	 500.0	 2	    1.10000	    0.90000;
	90	 1	 13.72	 8.44	 0.0	 0.0	 2	    1.00000	    0.00000	 138.0	 2	    1.10000	    0.90000;
	91	 1	 39.53	 -28.65	 0.0	 0.0	 2	    1.00000	    0.00000	 138.0	 2	    1.10000	    0.90000;
	92	 1	 -0.57	 -1.0	 0.0	 0.0	 2	    1.00000	    0.00000	 138.0	 2	    1.10000	    0.90000;
	93	 1	 -0.57	 -4.29	 0.0	 0.0	 2	    1.00000	    0.00000	 138.0	 2	    1.10000	    0.90000;
	94	 1	 0.1	 -1.77	 0.0	 0.0	 2	    1.00000	    0.00000	 138.0	 2	    1.10000	    0.90000;
	95	 1	 11.5	 4.37	 0.0	 0.0	 2	    1.00000	    0.00000	 138.0	 2	    1.10000	    0.90000;
	96	 2	 0.0	 0.0	 0.0	 0.0	 2	    1.00000	    0.00000	 20.0	 2	    1.10000	    0.90000;
	97	 1	 -6.11	 1.53	 0.0	 0.0	 3	    1.00000	    0.00000	 138.0	 3	    1.10000	    0.90000;
	98	 1	 0.1	 -19.54	 0.0	 0.0	 3	    1.00000	    0.00000	 138.0	 3	    1.10000	    0.90000;
	99	 1	 0.1	 -26.52	 0.0	 0.0	 3	    1.00000	    0.00000	 138.0	 3	    1.10000	    0.90000;
	100	 1	 0.1	 -29.89	 0.0	 0.0	 3	    1.00000	    0.00000	 138.0	 3	    1.10000	    0.90000;
	101	 1	 0.1	 -22.93	 0.0	 0.0	 3	    1.00000	    0.00000	 138.0	 3	    1.10000	    0.90000;
	102	 1	 -8.41	 1.87	 0.0	 0.0	 3	    1.00000	    0.00000	 138.0	 3	    1.10000	    0.90000;
	103	 1	 0.1	 -15.6	 0.0	 0.0	 3	    1.00000	    0.00000	 138.0	 3	    1.10000	    0.90000;
	104	 1	 -19.62	 26.91	 0.0	 0.0	 3	    1.00000	    0.00000	 138.0	 3	    1.10000	    0.90000;
	105	 2	 -41.25	 13.02	 0.0	 16.09	 3	    1.00000	    0.00000	 138.0	 3	    1.10000	    0.90000;
	106	 1	 0.1	 -29.89	 0.0	 0.0	 3	    1.00000	    0.00000	 138.0	 3	    1.10000	    0.90000;
	107	 1	 33.36	 20.0	 0.0	 0.0	 3	    1.00000	    0.00000	 138.0	 3	    1.10000	    0.90000;
	108	 2	 0.0	 0.0	 0.0	 0.0	 3	    1.00000	    0.00000	 138.0	 3	    1.10000	    0.90000;
	109	 1	 0.1	 7.83	 0.0	 0.0	 3	    1.00000	    0.00000	 138.0	 3	    1.10000	    0.90000;
	110	 1	 0.1	 -1.89	 0.0	 0.0	 3	    1.00000	    0.00000	 138.0	 3	    1.10000	    0.90000;
	111	 1	 13.77	 18.27	 0.0	 0.0	 3	    1.00000	    0.00000	 138.0	 3	    1.10000	    0.90000;
	112	 1	 34.14	 21.1	 0.0	 0.0	 3	    1.00000	    0.00000	 138.0	 3	    1.10000	    0.90000;
	113	 1	 0.1	 -10.07	 0.0	 0.0	 3	    1.00000	    0.00000	 138.0	 3	    1.10000	    0.90000;
	114	 1	 0.0	 0.0	 0.0	 0.0	 3	    1.00000	    0.00000	 138.0	 3	    1.10000	    0.90000;
	115	 1	 -13.32	 19.44	 0.0	 0.0	 3	    1.00000	    0.00000	 138.0	 3	    1.10000	    0.90000;
	116	 1	 0.1	 0.0	 0.0	 0.0	 3	    1.00000	    0.00000	 138.0	 3	    1.10000	    0.90000;
	117	 2	 0.0	 0.0	 0.0	 0.0	 3	    1.00000	    0.00000	 138.0	 3	    1.10000	    0.90000;
	118	 1	 0.1	 -19.08	 0.0	 0.0	 3	    1.00000	    0.00000	 138.0	 3	    1.10000	    0.90000;
	119	 1	 0.0	 0.0	 0.0	 0.0	 3	    1.00000	    0.00000	 138.0	 3	    1.10000	    0.90000;
	120	 1	 37.6	 21.67	 0.0	 0.0	 3	    1.00000	    0.00000	 138.0	 3	    1.10000	    0.90000;
	121	 1	 27.86	 14.21	 0.0	 0.0	 3	    1.00000	    0.00000	 138.0	 3	    1.10000	    0.90000;
	122	 1	 13.72	 -10.96	 0.0	 0.0	 3	    1.00000	    0.00000	 138.0	 3	    1.10000	    0.90000;
	123	 1	 0.1	 -1.89	 0.0	 0.0	 3	    1.00000	    0.00000	 138.0	 3	    1.10000	    0.90000;
	124	 1	 0.1	 -4.32	 0.0	 0.0	 3	    1.00000	    0.00000	 138.0	 3	    1.10000	    0.90000;
	125	 1	 -0.67	 -3.25	 0.0	 0.0	 3	    1.00000	    0.00000	 138.0	 3	    1.10000	    0.90000;
	126	 2	 0.1	 -19.08	 0.0	 0.0	 3	    1.00000	    0.00000	 138.0	 3	    1.10000	    0.90000;
	127	 1	 0.0	 0.0	 0.0	 0.0	 4	    1.00000	    0.00000	 20.0	 4	    1.10000	    0.90000;
	128	 2	 210.5	 27.62	 0.0	 -49.77	 4	    1.00000	    0.00000	 500.0	 4	    1.10000	    0.90000;
	129	 2	 0.0	 0.0	 0.0	 0.0	 4	    1.00000	    0.00000	 20.0	 4	    1.10000	    0.90000;
	130	 2	 0.0	 0.0	 0.0	 0.0	 4	    1.00000	    0.00000	 20.0	 4	    1.10000	    0.90000;
	131	 2	 0.0	 0.0	 0.0	 0.0	 4	    1.00000	    0.00000	 20.0	 4	    1.10000	    0.90000;
	132	 2	 0.0	 0.0	 0.0	 0.0	 4	    1.00000	    0.00000	 20.0	 4	    1.10000	    0.90000;
	133	 2	 0.0	 0.0	 0.0	 0.0	 4	    1.00000	    0.00000	 20.0	 4	    1.10000	    0.90000;
	134	 2	 0.0	 0.0	 0.0	 0.0	 4	    1.00000	    0.00000	 20.0	 4	    1.10000	    0.90000;
	135	 1	 229.05	 127.87	 0.0	 0.0	 4	    1.00000	    0.00000	 500.0	 4	    1.10000	    0.90000;
	136	 2	 0.0	 0.0	 0.0	 0.0	 4	    1.00000	    0.00000	 20.0	 4	    1.10000	    0.90000;
	137	 1	 17.32	 -9.92	 0.0	 0.0	 4	    1.00000	    0.00000	 500.0	 4	    1.10000	    0.90000;
	138	 1	 1.38	 40.91	 0.0	 0.0	 4	    1.00000	    0.00000	 500.0	 4	    1.10000	    0.90000;
	139	 1	 36.54	 1.82	 0.0	 0.0	 4	    1.00000	    0.00000	 345.0	 4	    1.10000	    0.90000;
	140	 1	 287.7	 3.44	 0.0	 0.0	 4	    1.00000	    0.00000	 500.0	 4	    1.10000	    0.90000;
	141	 1	 90.7	 1.7	 0.0	 0.0	 4	    1.00000	    0.00000	 345.0	 4	    1.10000	    0.90000;
	142	 2	 0.0	 0.0	 0.0	 0.0	 4	    1.00000	    0.00000	 500.0	 4	    1.10000	    0.90000;
	143	 2	 303.04	 131.03	 0.0	 0.0	 4	    1.00000	    0.00000	 500.0	 4	    1.10000	    0.90000;
	144	 1	 300.2	 -33.04	 0.0	 0.0	 4	    1.00000	    0.00000	 500.0	 4	    1.10000	    0.90000;
	145	 1	 207.95	 -48.04	 0.0	 0.0	 4	    1.00000	    0.00000	 500.0	 4	    1.10000	    0.90000;
	146	 2	 34.44	 -34.16	 0.0	 16.08	 4	    1.00000	    0.00000	 500.0	 4	    1.10000	    0.90000;
	147	 1	 25.54	 -11.15	 0.0	 0.0	 4	    1.00000	    0.00000	 345.0	 4	    1.10000	    0.90000;
	148	 1	 0.0	 0.0	 0.0	 0.0	 4	    1.00000	    0.00000	 20.0	 4	    1.10000	    0.90000;
	149	 1	 30.93	 0.69	 0.0	 5.66	 4	    1.00000	    0.00000	 345.0	 4	    1.10000	    0.90000;
	150	 2	 14.32	 -83.22	 0.0	 -23.72	 4	    1.00000	    0.00000	 500.0	 4	    1.10000	    0.90000;
	151	 2	 189.4	 22.18	 0.0	 0.0	 4	    1.00000	    0.00000	 345.0	 4	    1.10000	    0.90000;
	152	 1	 1.72	 56.78	 0.0	 0.0	 4	    1.00000	    0.00000	 500.0	 4	    1.10000	    0.90000;
	153	 2	 0.0	 0.0	 0.0	 0.0	 4	    1.00000	    0.00000	 20.0	 4	    1.10000	    0.90000;
	154	 1	 104.6	 39.28	 0.0	 0.0	 4	    1.00000	    0.00000	 345.0	 4	    1.10000	    0.90000;
	155	 1	 493.4	 -4.59	 0.0	 0.0	 4	    1.00000	    0.00000	 500.0	 4	    1.10000	    0.90000;
	156	 1	 69.78	 13.96	 0.0	 0.0	 4	    1.00000	    0.00000	 345.0	 4	    1.10000	    0.90000;
	157	 2	 0.0	 0.0	 0.0	 0.0	 4	    1.00000	    0.00000	 20.0	 4	    1.10000	    0.90000;
	158	 1	 633.63	 11.09	 0.0	 0.0	 4	    1.00000	    0.00000	 345.0	 4	    1.10000	    0.90000;
	159	 1	 0.0	 0.0	 0.0	 0.0	 4	    1.00000	    0.00000	 20.0	 4	    1.10000	    0.90000;
	160	 1	 694.34	 45.83	 0.0	 0.0	 4	    1.00000	    0.00000	 345.0	 4	    1.10000	    0.90000;
	161	 1	 0.0	 0.0	 0.0	 0.0	 4	    1.00000	    0.00000	 20.0	 4	    1.10000	    0.90000;
	162	 1	 0.0	 0.0	 0.0	 0.0	 4	    1.00000	    0.00000	 20.0	 4	    1.10000	    0.90000;
	163	 2	 0.0	 0.0	 0.0	 0.0	 4	    1.00000	    0.00000	 20.0	 4	    1.10000	    0.90000;
	164	 1	 0.0	 0.0	 0.0	 0.0	 4	    1.00000	    0.00000	 20.0	 4	    1.10000	    0.90000;
	165	 2	 0.0	 0.0	 0.0	 0.0	 4	    1.00000	    0.00000	 20.0	 4	    1.10000	    0.90000;
	166	 2	 0.0	 0.0	 0.0	 0.0	 4	    1.00000	    0.00000	 20.0	 4	    1.10000	    0.90000;
	167	 2	 0.0	 0.0	 0.0	 0.0	 4	    1.00000	    0.00000	 20.0	 4	    1.10000	    0.90000;
	168	 2	 0.0	 0.0	 0.0	 0.0	 4	    1.00000	    0.00000	 20.0	 4	    1.10000	    0.90000;
	169	 2	 0.0	 0.0	 0.0	 0.0	 4	    1.00000	    0.00000	 20.0	 4	    1.10000	    0.90000;
	170	 1	 -24.49	 95.16	 0.0	 11.38	 4	    1.00000	    0.00000	 500.0	 4	    1.10000	    0.90000;
	171	 1	 179.74	 -1.65	 0.0	 0.0	 4	    1.00000	    0.00000	 345.0	 4	    1.10000	    0.90000;
	172	 1	 80.59	 -11.62	 0.0	 0.0	 4	    1.00000	    0.00000	 345.0	 4	    1.10000	    0.90000;
	173	 1	 366.6	 -3.38	 0.0	 0.0	 4	    1.00000	    0.00000	 500.0	 4	    1.10000	    0.90000;
	174	 1	 72.28	 5.18	 0.0	 0.0	 4	    1.00000	    0.00000	 345.0	 4	    1.10000	    0.90000;
	175	 1	 31.59	 -20.02	 0.0	 0.0	 4	    1.00000	    0.00000	 500.0	 4	    1.10000	    0.90000;
	176	 2	 0.0	 0.0	 0.0	 0.0	 4	    1.00000	    0.00000	 20.0	 4	    1.10000	    0.90000;
	177	 1	 449.54	 10.66	 0.0	 0.0	 4	    1.00000	    0.00000	 345.0	 4	    1.10000	    0.90000;
	178	 1	 19.12	 -14.57	 0.0	 0.0	 4	    1.00000	    0.00000	 500.0	 4	    1.10000	    0.90000;
	179	 2	 0.0	 0.0	 0.0	 0.0	 4	    1.00000	    0.00000	 20.0	 4	    1.10000	    0.90000;
	180	 2	 0.0	 0.0	 0.0	 0.0	 4	    1.00000	    0.00000	 20.0	 4	    1.10000	    0.90000;
	181	 1	 24.33	 -74.57	 0.0	 0.0	 4	    1.00000	    0.00000	 500.0	 4	    1.10000	    0.90000;
	182	 2	 0.0	 0.0	 0.0	 0.0	 4	    1.00000	    0.00000	 20.0	 4	    1.10000	    0.90000;
	183	 1	 0.0	 0.0	 0.0	 0.0	 4	    1.00000	    0.00000	 20.0	 4	    1.10000	    0.90000;
	184	 1	 0.0	 0.0	 0.0	 0.0	 4	    1.00000	    0.00000	 20.0	 4	    1.10000	    0.90000;
	185	 2	 0.0	 0.0	 0.0	 0.0	 4	    1.00000	    0.00000	 20.0	 4	    1.10000	    0.90000;
	186	 1	 67.47	 4.64	 0.0	 0.0	 4	    1.00000	    0.00000	 345.0	 4	    1.10000	    0.90000;
	187	 2	 0.0	 0.0	 0.0	 0.0	 4	    1.00000	    0.00000	 20.0	 4	    1.10000	    0.90000;
	188	 2	 0.0	 0.0	 0.0	 0.0	 4	    1.00000	    0.00000	 20.0	 4	    1.10000	    0.90000;
	189	 2	 0.0	 0.0	 0.0	 0.0	 4	    1.00000	    0.00000	 20.0	 4	    1.10000	    0.90000;
	190	 1	 0.0	 0.0	 0.0	 0.0	 4	    1.00000	    0.00000	 20.0	 4	    1.10000	    0.90000;
	191	 1	 0.0	 0.0	 0.0	 0.0	 4	    1.00000	    0.00000	 20.0	 4	    1.10000	    0.90000;
	192	 1	 0.0	 0.0	 0.0	 0.0	 4	    1.00000	    0.00000	 20.0	 4	    1.10000	    0.90000;
	193	 1	 142.0	 10.03	 0.0	 0.0	 4	    1.00000	    0.00000	 345.0	 4	    1.10000	    0.90000;
	194	 2	 0.0	 0.0	 0.0	 0.0	 4	    1.00000	    0.00000	 500.0	 4	    1.10000	    0.90000;
	195	 1	 186.8	 12.96	 0.0	 0.0	 4	    1.00000	    0.00000	 345.0	 4	    1.10000	    0.90000;
	196	 1	 0.0	 0.0	 0.0	 0.0	 4	    1.00000	    0.00000	 20.0	 4	    1.10000	    0.90000;
	197	 1	 0.0	 0.0	 0.0	 0.0	 4	    1.00000	    0.00000	 20.0	 4	    1.10000	    0.90000;
	198	 1	 0.0	 0.0	 0.0	 0.0	 4	    1.00000	    0.00000	 20.0	 4	    1.10000	    0.90000;
	199	 1	 0.0	 0.0	 0.0	 0.0	 4	    1.00000	    0.00000	 20.0	 4	    1.10000	    0.90000;
	200	 1	 0.0	 0.0	 0.0	 0.0	 4	    1.00000	    0.00000	 20.0	 4	    1.10000	    0.90000;
	201	 1	 127.2	 -18.5	 0.0	 0.0	 4	    1.00000	    0.00000	 345.0	 4	    1.10000	    0.90000;
	202	 2	 179.0	 -2.38	 0.0	 -38.1	 4	    1.00000	    0.00000	 500.0	 4	    1.10000	    0.90000;
	203	 1	 0.0	 0.0	 0.0	 0.0	 4	    1.00000	    0.00000	 20.0	 4	    1.10000	    0.90000;
	204	 2	 0.0	 0.0	 0.0	 0.0	 4	    1.00000	    0.00000	 20.0	 4	    1.10000	    0.90000;
	205	 1	 156.6	 4.64	 0.0	 0.0	 4	    1.00000	    0.00000	 345.0	 4	    1.10000	    0.90000;
	206	 1	 0.0	 0.0	 0.0	 0.0	 4	    1.00000	    0.00000	 20.0	 4	    1.10000	    0.90000;
	207	 1	 0.0	 0.0	 0.0	 0.0	 4	    1.00000	    0.00000	 20.0	 4	    1.10000	    0.90000;
	208	 1	 40.54	 1.72	 0.0	 0.0	 4	    1.00000	    0.00000	 345.0	 4	    1.10000	    0.90000;
	209	 1	 0.0	 0.0	 0.0	 0.0	 4	    1.00000	    0.00000	 20.0	 4	    1.10000	    0.90000;
	210	 2	 0.0	 0.0	 0.0	 0.0	 4	    1.00000	    0.00000	 20.0	 4	    1.10000	    0.90000;
	211	 1	 0.0	 0.0	 0.0	 0.0	 4	    1.00000	    0.00000	 20.0	 4	    1.10000	    0.90000;
	212	 1	 0.0	 0.0	 0.0	 0.0	 4	    1.00000	    0.00000	 20.0	 4	    1.10000	    0.90000;
	213	 2	 0.0	 0.0	 0.0	 0.0	 4	    1.00000	    0.00000	 20.0	 4	    1.10000	    0.90000;
	214	 1	 0.0	 0.0	 0.0	 0.0	 4	    1.00000	    0.00000	 20.0	 4	    1.10000	    0.90000;
	215	 1	 0.0	 0.0	 0.0	 0.0	 4	    1.00000	    0.00000	 20.0	 4	    1.10000	    0.90000;
	216	 2	 36.74	 -2.88	 0.0	 0.0	 4	    1.00000	    0.00000	 500.0	 4	    1.10000	    0.90000;
	217	 1	 6.31	 -0.67	 0.0	 0.0	 5	    1.00000	    0.00000	 110.0	 5	    1.10000	    0.90000;
	218	 1	 0.1	 -0.88	 0.0	 0.0	 5	    1.00000	    0.00000	 110.0	 5	    1.10000	    0.90000;
	219	 1	 70.53	 22.7	 0.0	 0.0	 5	    1.00000	    0.00000	 110.0	 5	    1.10000	    0.90000;
	220	 1	 45.81	 -22.29	 0.0	 0.0	 5	    1.00000	    0.00000	 500.0	 5	    1.10000	    0.90000;
	221	 1	 -0.54	 -113.68	 0.0	 0.0	 5	    1.00000	    0.00000	 500.0	 5	    1.10000	    0.90000;
	222	 1	 19.02	 5.95	 0.0	 0.0	 5	    1.00000	    0.00000	 110.0	 5	    1.10000	    0.90000;
	223	 1	 5.11	 0.53	 0.0	 0.0	 5	    1.00000	    0.00000	 110.0	 5	    1.10000	    0.90000;
	224	 2	 0.0	 0.0	 0.0	 0.0	 5	    1.00000	    0.00000	 20.0	 5	    1.10000	    0.90000;
	225	 1	 56.56	 2.87	 0.0	 0.0	 5	    1.00000	    0.00000	 110.0	 5	    1.10000	    0.90000;
	226	 1	 10.11	 2.03	 0.0	 0.0	 5	    1.00000	    0.00000	 110.0	 5	    1.10000	    0.90000;
	227	 2	 0.0	 0.0	 0.0	 0.0	 5	    1.00000	    0.00000	 500.0	 5	    1.10000	    0.90000;
	228	 1	 12.35	 -3.5	 0.0	 0.0	 5	    1.00000	    0.00000	 110.0	 5	    1.10000	    0.90000;
	229	 2	 0.0	 0.0	 0.0	 0.0	 5	    1.00000	    0.00000	 20.0	 5	    1.10000	    0.90000;
	230	 2	 0.0	 0.0	 0.0	 0.0	 5	    1.00000	    0.00000	 20.0	 5	    1.10000	    0.90000;
	231	 1	 0.1	 -0.08	 0.0	 0.0	 5	    1.00000	    0.00000	 110.0	 5	    1.10000	    0.90000;
	232	 2	 0.0	 0.0	 0.0	 0.0	 5	    1.00000	    0.00000	 20.0	 5	    1.10000	    0.90000;
	233	 1	 17.12	 2.8	 0.0	 0.0	 5	    1.00000	    0.00000	 110.0	 5	    1.10000	    0.90000;
	234	 1	 88.04	 -22.4	 0.0	 0.0	 5	    1.00000	    0.00000	 345.0	 5	    1.10000	    0.90000;
	235	 1	 14.92	 3.08	 0.0	 0.0	 5	    1.00000	    0.00000	 110.0	 5	    1.10000	    0.90000;
	236	 1	 41.15	 1.59	 0.0	 0.0	 5	    1.00000	    0.00000	 110.0	 5	    1.10000	    0.90000;
	237	 2	 0.0	 0.0	 0.0	 0.0	 5	    1.00000	    0.00000	 20.0	 5	    1.10000	    0.90000;
	238	 2	 0.0	 0.0	 0.0	 0.0	 5	    1.00000	    0.00000	 20.0	 5	    1.10000	    0.90000;
	239	 2	 0.0	 0.0	 0.0	 0.0	 5	    1.00000	    0.00000	 20.0	 5	    1.10000	    0.90000;
	240	 1	 20.12	 8.42	 0.0	 0.0	 5	    1.00000	    0.00000	 110.0	 5	    1.10000	    0.90000;
	241	 1	 2.5	 -0.11	 0.0	 0.0	 5	    1.00000	    0.00000	 110.0	 5	    1.10000	    0.90000;
	242	 2	 5.11	 -3.83	 0.0	 0.0	 5	    1.00000	    0.00000	 110.0	 5	    1.10000	    0.90000;
	243	 1	 14.26	 -1.78	 0.0	 0.0	 5	    1.00000	    0.00000	 110.0	 5	    1.10000	    0.90000;
	244	 2	 145.84	 29.78	 0.0	 -44.85	 5	    1.00000	    0.00000	 500.0	 5	    1.10000	    0.90000;
	245	 1	 0.44	 -6.16	 0.0	 0.0	 5	    1.00000	    0.00000	 500.0	 5	    1.10000	    0.90000;
	246	 1	 0.15	 -92.21	 0.0	 58.45	 5	    1.00000	    0.00000	 500.0	 5	    1.10000	    0.90000;
	247	 2	 2.5	 1.14	 0.0	 0.0	 5	    1.00000	    0.00000	 110.0	 5	    1.10000	    0.90000;
	248	 2	 0.27	 -87.43	 0.0	 0.0	 5	    1.00000	    0.00000	 500.0	 5	    1.10000	    0.90000;
	249	 1	 3.8	 0.52	 0.0	 0.0	 5	    1.00000	    0.00000	 110.0	 5	    1.10000	    0.90000;
	250	 1	 17.82	 7.16	 0.0	 0.0	 5	    1.00000	    0.00000	 110.0	 5	    1.10000	    0.90000;
	251	 1	 20.72	 -3.2	 0.0	 0.0	 5	    1.00000	    0.00000	 110.0	 5	    1.10000	    0.90000;
	252	 1	 20.12	 8.43	 0.0	 0.0	 5	    1.00000	    0.00000	 110.0	 5	    1.10000	    0.90000;
	253	 1	 31.77	 0.68	 0.0	 0.0	 5	    1.00000	    0.00000	 110.0	 5	    1.10000	    0.90000;
	254	 1	 21.62	 9.66	 0.0	 0.0	 5	    1.00000	    0.00000	 110.0	 5	    1.10000	    0.90000;
	255	 2	 0.0	 0.0	 0.0	 0.0	 5	    1.00000	    0.00000	 20.0	 5	    1.10000	    0.90000;
	256	 2	 0.0	 0.0	 0.0	 0.0	 5	    1.00000	    0.00000	 20.0	 5	    1.10000	    0.90000;
	257	 1	 77.53	 19.47	 0.0	 0.0	 5	    1.00000	    0.00000	 110.0	 5	    1.10000	    0.90000;
	258	 2	 0.0	 0.0	 0.0	 0.0	 5	    1.00000	    0.00000	 20.0	 5	    1.10000	    0.90000;
	259	 1	 51.96	 22.2	 0.0	 0.0	 5	    1.00000	    0.00000	 110.0	 5	    1.10000	    0.90000;
	260	 1	 41.97	 24.42	 0.0	 0.0	 5	    1.00000	    0.00000	 345.0	 5	    1.10000	    0.90000;
	261	 2	 0.0	 0.0	 0.0	 0.0	 5	    1.00000	    0.00000	 20.0	 5	    1.10000	    0.90000;
	262	 1	 0.27	 -91.79	 0.0	 0.0	 5	    1.00000	    0.00000	 500.0	 5	    1.10000	    0.90000;
	263	 1	 21.62	 9.66	 0.0	 0.0	 5	    1.00000	    0.00000	 110.0	 5	    1.10000	    0.90000;
	264	 1	 437.31	 75.45	 0.0	 0.0	 5	    1.00000	    0.00000	 500.0	 5	    1.10000	    0.90000;
	265	 1	 0.1	 -119.78	 0.0	 0.0	 5	    1.00000	    0.00000	 500.0	 5	    1.10000	    0.90000;
	266	 1	 93.4	 38.76	 0.0	 0.0	 5	    1.00000	    0.00000	 345.0	 5	    1.10000	    0.90000;
	267	 1	 51.96	 1.36	 0.0	 0.0	 5	    1.00000	    0.00000	 110.0	 5	    1.10000	    0.90000;
	268	 1	 0.22	 -46.23	 0.0	 0.0	 5	    1.00000	    0.00000	 500.0	 5	    1.10000	    0.90000;
	269	 2	 0.0	 0.0	 0.0	 0.0	 5	    1.00000	    0.00000	 20.0	 5	    1.10000	    0.90000;
	270	 2	 0.0	 0.0	 0.0	 0.0	 5	    1.00000	    0.00000	 20.0	 5	    1.10000	    0.90000;
	271	 1	 19.84	 2.17	 0.0	 0.0	 5	    1.00000	    0.00000	 110.0	 5	    1.10000	    0.90000;
	272	 1	 61.05	 5.08	 0.0	 0.0	 5	    1.00000	    0.00000	 110.0	 5	    1.10000	    0.90000;
	273	 2	 0.0	 0.0	 0.0	 0.0	 5	    1.00000	    0.00000	 20.0	 5	    1.10000	    0.90000;
	274	 1	 30.03	 12.51	 0.0	 0.0	 5	    1.00000	    0.00000	 110.0	 5	    1.10000	    0.90000;
	275	 1	 8.91	 2.19	 0.0	 0.0	 5	    1.00000	    0.00000	 110.0	 5	    1.10000	    0.90000;
	276	 1	 64.57	 5.2	 0.0	 0.0	 5	    1.00000	    0.00000	 110.0	 5	    1.10000	    0.90000;
	277	 1	 143.79	 32.52	 0.0	 0.0	 5	    1.00000	    0.00000	 345.0	 5	    1.10000	    0.90000;
	278	 1	 0.0	 0.0	 0.0	 0.0	 6	    1.00000	    0.00000	 20.0	 6	    1.10000	    0.90000;
	279	 2	 0.0	 0.0	 0.0	 0.0	 6	    1.00000	    0.00000	 20.0	 6	    1.10000	    0.90000;
	280	 2	 0.0	 0.0	 0.0	 0.0	 6	    1.00000	    0.00000	 20.0	 6	    1.10000	    0.90000;
	281	 1	 144.4	 27.84	 0.0	 0.0	 6	    1.00000	    0.00000	 345.0	 6	    1.10000	    0.90000;
	282	 1	 0.1	 -5.67	 0.0	 0.0	 6	    1.00000	    0.00000	 345.0	 6	    1.10000	    0.90000;
	283	 1	 343.9	 136.35	 0.0	 0.0	 6	    1.00000	    0.00000	 345.0	 6	    1.10000	    0.90000;
	284	 2	 0.1	 -6.63	 0.0	 0.0	 6	    1.00000	    0.00000	 345.0	 6	    1.10000	    0.90000;
	285	 1	 0.1	 -2.05	 0.0	 0.0	 6	    1.00000	    0.00000	 345.0	 6	    1.10000	    0.90000;
	286	 1	 0.1	 -3.47	 0.0	 0.0	 6	    1.00000	    0.00000	 345.0	 6	    1.10000	    0.90000;
	287	 1	 0.1	 -2.81	 0.0	 0.0	 6	    1.00000	    0.00000	 345.0	 6	    1.10000	    0.90000;
	288	 1	 0.1	 -2.61	 0.0	 0.0	 6	    1.00000	    0.00000	 345.0	 6	    1.10000	    0.90000;
	289	 2	 0.0	 0.0	 0.0	 0.0	 6	    1.00000	    0.00000	 20.0	 6	    1.10000	    0.90000;
	290	 1	 20.92	 6.49	 0.0	 0.0	 6	    1.00000	    0.00000	 345.0	 6	    1.10000	    0.90000;
	291	 1	 0.1	 -2.91	 0.0	 0.0	 6	    1.00000	    0.00000	 345.0	 6	    1.10000	    0.90000;
	292	 2	 0.0	 0.0	 0.0	 0.0	 6	    1.00000	    0.00000	 20.0	 6	    1.10000	    0.90000;
	293	 2	 0.0	 0.0	 0.0	 0.0	 6	    1.00000	    0.00000	 20.0	 6	    1.10000	    0.90000;
	294	 1	 0.1	 -3.72	 0.0	 0.0	 6	    1.00000	    0.00000	 345.0	 6	    1.10000	    0.90000;
	295	 2	 0.0	 0.0	 0.0	 0.0	 6	    1.00000	    0.00000	 20.0	 6	    1.10000	    0.90000;
	296	 1	 107.0	 33.16	 0.0	 0.0	 6	    1.00000	    0.00000	 345.0	 6	    1.10000	    0.90000;
	297	 1	 83.29	 22.87	 0.0	 0.0	 6	    1.00000	    0.00000	 345.0	 6	    1.10000	    0.90000;
	298	 1	 0.1	 -1.02	 0.0	 0.0	 6	    1.00000	    0.00000	 345.0	 6	    1.10000	    0.90000;
	299	 1	 0.1	 -13.94	 0.0	 0.0	 6	    1.00000	    0.00000	 345.0	 6	    1.10000	    0.90000;
	300	 2	 0.0	 0.0	 0.0	 0.0	 6	    1.00000	    0.00000	 20.0	 6	    1.10000	    0.90000;
	301	 2	 0.0	 0.0	 0.0	 0.0	 6	    1.00000	    0.00000	 20.0	 6	    1.10000	    0.90000;
	302	 2	 0.0	 0.0	 0.0	 0.0	 6	    1.00000	    0.00000	 500.0	 6	    1.10000	    0.90000;
	303	 2	 0.0	 0.0	 0.0	 0.0	 6	    1.00000	    0.00000	 20.0	 6	    1.10000	    0.90000;
	304	 1	 29.22	 -150.39	 0.0	 0.0	 6	    1.00000	    0.00000	 500.0	 6	    1.10000	    0.90000;
	305	 1	 178.25	 55.64	 0.0	 0.0	 6	    1.00000	    0.00000	 345.0	 6	    1.10000	    0.90000;
	306	 2	 0.0	 0.0	 0.0	 0.0	 6	    1.00000	    0.00000	 20.0	 6	    1.10000	    0.90000;
	307	 2	 0.0	 0.0	 0.0	 0.0	 6	    1.00000	    0.00000	 20.0	 6	    1.10000	    0.90000;
	308	 2	 0.0	 0.0	 0.0	 0.0	 6	    1.00000	    0.00000	 20.0	 6	    1.10000	    0.90000;
	309	 1	 0.1	 -7.45	 0.0	 0.0	 6	    1.00000	    0.00000	 345.0	 6	    1.10000	    0.90000;
	310	 1	 111.0	 34.39	 0.0	 0.0	 6	    1.00000	    0.00000	 345.0	 6	    1.10000	    0.90000;
	311	 1	 349.3	 143.76	 0.0	 39.9	 6	    1.00000	    0.00000	 345.0	 6	    1.10000	    0.90000;
	312	 1	 141.2	 37.85	 0.0	 0.0	 6	    1.00000	    0.00000	 345.0	 6	    1.10000	    0.90000;
	313	 2	 0.0	 0.0	 0.0	 0.0	 6	    1.00000	    0.00000	 20.0	 6	    1.10000	    0.90000;
	314	 2	 0.1	 -3.06	 0.0	 -58.65	 6	    1.00000	    0.00000	 345.0	 6	    1.10000	    0.90000;
	315	 1	 0.1	 -2.07	 0.0	 0.0	 6	    1.00000	    0.00000	 345.0	 6	    1.10000	    0.90000;