%%%%%%%%%%%%%%%%%%%%%%%%%%%%%%%%%%%%%%%%%%%%%%%%%%%%%%%%%%%%%%%%%%%%%%%%%%%
%%%%                                                                  %%%%%
%%%%    IEEE PES Power Grid Library - Optimal Power Flow - v23.07     %%%%%
%%%%          (https://github.com/power-grid-lib/pglib-opf)           %%%%%
%%%%               Benchmark Group - Typical Operations               %%%%%
%%%%                         23 - July - 2023                         %%%%%
%%%%                                                                  %%%%%
%%%%%%%%%%%%%%%%%%%%%%%%%%%%%%%%%%%%%%%%%%%%%%%%%%%%%%%%%%%%%%%%%%%%%%%%%%%
%
%   Optimal Power Flow data for the Synthetic National Electricity Market (SNEM)
%   Australia - Tasmania subnetwork.
%
%   This dataset is derived by complementing and extending the S-NEM2300bus
%   benchmark data and software as part the following works:
%      - F. Arraño-Vargas and G. Konstantinou, "Modular Design and Real-Time
%        Simulators Toward Power System Digital Twins Implementation," in IEEE
%        Transactions on Industrial Informatics, doi: 10.1109/TII.2022.3178713
%      - F. Arraño-Vargas and G. Konstantinou, "Synthetic Grid Modeling for
%        Real-Time Simulations," 2021 IEEE PES Innovative Smart Grid
%        Technologies - Asia (ISGT Asia), 2021,
%        doi: 10.1109/ISGTAsia49270.2021.9715654
%
%   A technical report about this dataset is available at:
%   https://arxiv.org/abs/2306.08176
%
%   Copyright (c) 2023 by Rahmat Heidari (rahmat.heidarihaei@csiro.au)
%   Licensed under the Creative Commons Attribution 4.0
%   International license, http://creativecommons.org/licenses/by/4.0/
%
function mpc = pglib_opf_case197_snem
mpc.version = '2';
mpc.baseMVA = 100.0;

%% bus data
%	bus_i	type	Pd	Qd	Gs	Bs	area	Vm	Va	baseKV	zone	Vmax	Vmin
mpc.bus = [
	2112	 1	 -18.456624726	 0.0	 0.0	 10.7958302228	 5	    1.00000	    0.00000	 33.0	 1	    1.10000	    0.90000;
	2114	 2	 0.0	 0.0	 0.0	 0.0	 5	    1.00000	    0.00000	 13.8	 1	    1.10000	    0.90000;
	2115	 2	 0.0	 0.0	 0.0	 0.0	 5	    1.00000	    0.00000	 13.8	 1	    1.10000	    0.90000;
	2116	 2	 0.0	 0.0	 0.0	 0.0	 5	    1.00000	    0.00000	 13.8	 1	    1.10000	    0.90000;
	2117	 2	 0.0	 0.0	 0.0	 0.0	 5	    1.00000	    0.00000	 11.0	 1	    1.10000	    0.90000;
	2118	 2	 1.43784302386	 0.0	 0.0	 0.0	 5	    1.00000	    0.00000	 13.8	 1	    1.10000	    0.90000;
	2119	 2	 0.0	 0.0	 0.0	 0.0	 5	    1.00000	    0.00000	 11.0	 1	    1.10000	    0.90000;
	2120	 1	 0.0	 0.0	 0.0	 0.0	 5	    1.00000	    0.00000	 11.5	 1	    1.10000	    0.90000;
	2121	 1	 0.0	 0.0	 0.0	 0.0	 5	    1.00000	    0.00000	 11.5	 1	    1.10000	    0.90000;
	2122	 1	 0.0	 0.0	 0.0	 0.0	 5	    1.00000	    0.00000	 11.5	 1	    1.10000	    0.90000;
	2123	 2	 0.0	 0.0	 0.0	 0.0	 5	    1.00000	    0.00000	 11.5	 1	    1.10000	    0.90000;
	2124	 2	 5.34111425835	 1.84528285785	 0.0	 0.0	 5	    1.00000	    0.00000	 14.5	 1	    1.10000	    0.90000;
	2125	 2	 0.0	 0.0	 0.0	 0.0	 5	    1.00000	    0.00000	 13.2	 1	    1.10000	    0.90000;
	2126	 2	 0.0	 0.0	 0.0	 0.0	 5	    1.00000	    0.00000	 11.0	 1	    1.10000	    0.90000;
	2127	 2	 0.0	 0.0	 0.0	 0.0	 5	    1.00000	    0.00000	 11.0	 1	    1.10000	    0.90000;
	2128	 2	 0.0	 0.0	 0.0	 0.0	 5	    1.00000	    0.00000	 11.0	 1	    1.10000	    0.90000;
	2129	 2	 0.0	 0.0	 0.0	 0.0	 5	    1.00000	    0.00000	 11.0	 1	    1.10000	    0.90000;
	2130	 2	 0.0	 0.0	 0.0	 0.0	 5	    1.00000	    0.00000	 11.0	 1	    1.10000	    0.90000;
	2131	 2	 0.0	 0.0	 0.0	 0.0	 5	    1.00000	    0.00000	 11.0	 1	    1.10000	    0.90000;
	2132	 2	 0.0	 0.0	 0.0	 0.0	 5	    1.00000	    0.00000	 11.0	 1	    1.10000	    0.90000;
	2133	 2	 0.0	 0.0	 0.0	 0.0	 5	    1.00000	    0.00000	 11.0	 1	    1.10000	    0.90000;
	2134	 2	 0.0	 0.0	 0.0	 0.0	 5	    1.00000	    0.00000	 18.0	 1	    1.10000	    0.90000;
	2135	 2	 0.0	 0.0	 0.0	 0.0	 5	    1.00000	    0.00000	 18.0	 1	    1.10000	    0.90000;
	2136	 3	 0.0	 0.0	 0.0	 0.0	 5	    1.00000	    0.00000	 18.0	 1	    1.10000	    0.90000;
	2137	 1	 0.0	 0.0	 0.0	 0.0	 5	    1.00000	    0.00000	 6.6	 1	    1.10000	    0.90000;
	2138	 2	 0.0	 0.0	 0.0	 0.0	 5	    1.00000	    0.00000	 11.0	 1	    1.10000	    0.90000;
	2139	 2	 0.0	 0.0	 0.0	 0.0	 5	    1.00000	    0.00000	 11.0	 1	    1.10000	    0.90000;
	2140	 2	 0.0	 0.0	 0.0	 0.0	 5	    1.00000	    0.00000	 16.0	 1	    1.10000	    0.90000;
	2141	 1	 0.0	 0.0	 0.0	 0.0	 5	    1.00000	    0.00000	 16.0	 1	    1.10000	    0.90000;
	2142	 2	 0.0	 0.0	 0.0	 0.0	 5	    1.00000	    0.00000	 16.0	 1	    1.10000	    0.90000;
	2143	 2	 0.0	 0.0	 0.0	 0.0	 5	    1.00000	    0.00000	 16.0	 1	    1.10000	    0.90000;
	2144	 2	 0.0	 0.0	 0.0	 0.0	 5	    1.00000	    0.00000	 16.0	 1	    1.10000	    0.90000;
	2145	 1	 0.0	 0.0	 0.0	 0.0	 5	    1.00000	    0.00000	 16.0	 1	    1.10000	    0.90000;
	2146	 1	 -7.48757228344	 0.0	 0.0	 0.0	 5	    1.00000	    0.00000	 0.69	 1	    1.10000	    0.90000;
	2147	 1	 0.0	 0.0	 0.0	 0.0	 5	    1.00000	    0.00000	 22.0	 1	    1.10000	    0.90000;
	2148	 2	 0.0	 0.0	 0.0	 0.0	 5	    1.00000	    0.00000	 1.0	 1	    1.10000	    0.90000;
	2149	 1	 0.0	 0.0	 0.0	 -5.70733361581	 5	    1.00000	    0.00000	 13.8	 1	    1.10000	    0.90000;
	2150	 1	 0.0	 0.0	 0.0	 -6.03779546404	 5	    1.00000	    0.00000	 13.8	 1	    1.10000	    0.90000;
	2152	 1	 0.0	 0.0	 0.0	 0.0	 5	    1.00000	    0.00000	 110.0	 1	    1.10000	    0.90000;
	2153	 1	 0.0	 0.0	 0.0	 0.0	 5	    1.00000	    0.00000	 110.0	 1	    1.10000	    0.90000;
	2155	 1	 0.0	 0.0	 0.0	 0.0	 5	    1.00000	    0.00000	 110.0	 1	    1.10000	    0.90000;
	2156	 1	 0.0	 0.0	 0.0	 0.0	 5	    1.00000	    0.00000	 110.0	 1	    1.10000	    0.90000;
	2157	 1	 0.0	 0.0	 0.0	 0.0	 5	    1.00000	    0.00000	 110.0	 1	    1.10000	    0.90000;
	2158	 1	 0.0	 0.0	 0.0	 0.0	 5	    1.00000	    0.00000	 110.0	 1	    1.10000	    0.90000;
	2160	 1	 0.0	 0.0	 0.0	 0.0	 5	    1.00000	    0.00000	 110.0	 1	    1.10000	    0.90000;
	2161	 1	 0.0	 0.0	 0.0	 0.0	 5	    1.00000	    0.00000	 110.0	 1	    1.10000	    0.90000;
	2162	 1	 0.0	 0.0	 0.0	 0.0	 5	    1.00000	    0.00000	 110.0	 1	    1.10000	    0.90000;
	2163	 1	 0.0	 0.0	 0.0	 0.0	 5	    1.00000	    0.00000	 110.0	 1	    1.10000	    0.90000;
	2164	 1	 0.0	 0.0	 0.0	 30.2475361833	 5	    1.00000	    0.00000	 110.0	 1	    1.10000	    0.90000;
	2165	 1	 0.0	 0.0	 0.0	 0.0	 5	    1.00000	    0.00000	 110.0	 1	    1.10000	    0.90000;
	2166	 1	 0.0	 0.0	 0.0	 29.8942327662	 5	    1.00000	    0.00000	 110.0	 1	    1.10000	    0.90000;
	2167	 1	 0.0	 0.0	 0.0	 0.0	 5	    1.00000	    0.00000	 110.0	 1	    1.10000	    0.90000;
	2168	 1	 0.0	 0.0	 0.0	 0.0	 5	    1.00000	    0.00000	 110.0	 1	    1.10000	    0.90000;
	2169	 1	 0.0	 0.0	 0.0	 0.0	 5	    1.00000	    0.00000	 110.0	 1	    1.10000	    0.90000;
	2170	 1	 0.0	 0.0	 0.0	 0.0	 5	    1.00000	    0.00000	 110.0	 1	    1.10000	    0.90000;
	2171	 1	 0.0	 0.0	 0.0	 0.0	 5	    1.00000	    0.00000	 110.0	 1	    1.10000	    0.90000;
	2172	 1	 0.0	 0.0	 0.0	 0.0	 5	    1.00000	    0.00000	 110.0	 1	    1.10000	    0.90000;
	2173	 1	 0.0	 0.0	 0.0	 27.5769489619	 5	    1.00000	    0.00000	 110.0	 1	    1.10000	    0.90000;
	2174	 1	 0.0	 0.0	 0.0	 0.0	 5	    1.00000	    0.00000	 110.0	 1	    1.10000	    0.90000;
	2175	 1	 109.560738771	 5.56446601437	 0.0	 0.0	 5	    1.00000	    0.00000	 110.0	 1	    1.10000	    0.90000;
	2176	 1	 0.0	 0.0	 0.0	 0.0	 5	    1.00000	    0.00000	 110.0	 1	    1.10000	    0.90000;
	2177	 1	 0.0	 0.0	 0.0	 0.0	 5	    1.00000	    0.00000	 110.0	 1	    1.10000	    0.90000;
	2178	 1	 0.0	 0.0	 0.0	 0.0	 5	    1.00000	    0.00000	 110.0	 1	    1.10000	    0.90000;
	2180	 1	 0.0	 0.0	 0.0	 0.0	 5	    1.00000	    0.00000	 110.0	 1	    1.10000	    0.90000;
	2183	 1	 0.0	 0.0	 0.0	 0.0	 5	    1.00000	    0.00000	 110.0	 1	    1.10000	    0.90000;
	2186	 1	 0.0	 0.0	 0.0	 0.0	 5	    1.00000	    0.00000	 110.0	 1	    1.10000	    0.90000;
	2189	 1	 0.0	 0.0	 0.0	 0.0	 5	    1.00000	    0.00000	 110.0	 1	    1.10000	    0.90000;
	2190	 1	 0.0	 0.0	 0.0	 0.0	 5	    1.00000	    0.00000	 110.0	 1	    1.10000	    0.90000;
	2192	 1	 0.0	 0.0	 0.0	 0.0	 5	    1.00000	    0.00000	 110.0	 1	    1.10000	    0.90000;
	2193	 1	 0.0	 0.0	 0.0	 0.0	 5	    1.00000	    0.00000	 110.0	 1	    1.10000	    0.90000;
	2194	 1	 0.0	 0.0	 0.0	 0.0	 5	    1.00000	    0.00000	 110.0	 1	    1.10000	    0.90000;
	2195	 1	 0.0	 0.0	 0.0	 39.4429057464	 5	    1.00000	    0.00000	 110.0	 1	    1.10000	    0.90000;
	2198	 1	 0.0	 0.0	 0.0	 0.0	 5	    1.00000	    0.00000	 110.0	 1	    1.10000	    0.90000;
	2199	 1	 4.14840343669	 1.22681196274	 0.0	 0.0	 5	    1.00000	    0.00000	 33.0	 1	    1.10000	    0.90000;
	2200	 1	 0.0	 0.0	 0.0	 0.0	 5	    1.00000	    0.00000	 110.0	 1	    1.10000	    0.90000;
	2201	 1	 0.0	 0.0	 0.0	 0.0	 5	    1.00000	    0.00000	 110.0	 1	    1.10000	    0.90000;
	2202	 1	 0.0	 0.0	 0.0	 0.0	 5	    1.00000	    0.00000	 110.0	 1	    1.10000	    0.90000;
	2203	 1	 0.0	 0.0	 0.0	 0.0	 5	    1.00000	    0.00000	 110.0	 1	    1.10000	    0.90000;
	2204	 1	 0.0	 0.0	 0.0	 0.0	 5	    1.00000	    0.00000	 110.0	 1	    1.10000	    0.90000;
	2205	 1	 0.0	 0.0	 0.0	 0.0	 5	    1.00000	    0.00000	 110.0	 1	    1.10000	    0.90000;
	2206	 1	 0.0	 0.0	 0.0	 0.0	 5	    1.00000	    0.00000	 110.0	 1	    1.10000	    0.90000;
	2207	 1	 0.0	 0.0	 0.0	 0.0	 5	    1.00000	    0.00000	 110.0	 1	    1.10000	    0.90000;
	2208	 1	 0.0	 0.0	 0.0	 0.0	 5	    1.00000	    0.00000	 110.0	 1	    1.10000	    0.90000;
	2209	 1	 0.0	 0.0	 0.0	 0.0	 5	    1.00000	    0.00000	 110.0	 1	    1.10000	    0.90000;
	2210	 1	 0.0	 0.0	 0.0	 0.0	 5	    1.00000	    0.00000	 110.0	 1	    1.10000	    0.90000;
	2212	 1	 0.0	 0.0	 0.0	 0.0	 5	    1.00000	    0.00000	 110.0	 1	    1.10000	    0.90000;
	2214	 1	 0.0	 0.0	 0.0	 0.0	 5	    1.00000	    0.00000	 110.0	 1	    1.10000	    0.90000;
	2215	 1	 0.0	 0.0	 0.0	 0.0	 5	    1.00000	    0.00000	 110.0	 1	    1.10000	    0.90000;
	2217	 1	 0.0	 0.0	 0.0	 0.0	 5	    1.00000	    0.00000	 110.0	 1	    1.10000	    0.90000;
	2219	 1	 0.0	 0.0	 0.0	 0.0	 5	    1.00000	    0.00000	 110.0	 1	    1.10000	    0.90000;
	2220	 1	 0.0	 0.0	 0.0	 0.0	 5	    1.00000	    0.00000	 110.0	 1	    1.10000	    0.90000;
	2221	 1	 25.5331817143	 4.24297217382	 0.0	 0.0	 5	    1.00000	    0.00000	 22.0	 1	    1.10000	    0.90000;
	2222	 1	 0.0	 0.0	 0.0	 0.0	 5	    1.00000	    0.00000	 110.0	 1	    1.10000	    0.90000;
	2223	 1	 0.0	 0.0	 0.0	 0.0	 5	    1.00000	    0.00000	 110.0	 1	    1.10000	    0.90000;
	2224	 1	 0.0	 0.0	 0.0	 0.0	 5	    1.00000	    0.00000	 110.0	 1	    1.10000	    0.90000;
	2225	 1	 0.0	 0.0	 0.0	 0.0	 5	    1.00000	    0.00000	 110.0	 1	    1.10000	    0.90000;
	2226	 1	 0.844463851361	 0.811486859629	 0.0	 0.0	 5	    1.00000	    0.00000	 110.0	 1	    1.10000	    0.90000;
	2227	 1	 0.0	 0.0	 0.0	 0.0	 5	    1.00000	    0.00000	 110.0	 1	    1.10000	    0.90000;
	2228	 1	 1.24574926804	 -0.664264286632	 0.0	 0.0	 5	    1.00000	    0.00000	 110.0	 1	    1.10000	    0.90000;
	2229	 1	 0.0	 0.0	 0.0	 0.0	 5	    1.00000	    0.00000	 110.0	 1	    1.10000	    0.90000;
	2231	 1	 0.0	 0.0	 0.0	 0.0	 5	    1.00000	    0.00000	 110.0	 1	    1.10000	    0.90000;
	2232	 1	 0.0	 0.0	 0.0	 0.0	 5	    1.00000	    0.00000	 110.0	 1	    1.10000	    0.90000;
	2233	 1	 0.0	 0.0	 0.0	 0.0	 5	    1.00000	    0.00000	 110.0	 1	    1.10000	    0.90000;
	2234	 1	 6.30917010283	 0.352394917171	 0.0	 0.0	 5	    1.00000	    0.00000	 33.0	 1	    1.10000	    0.90000;
	2235	 1	 6.3943493002	 0.321420691079	 0.0	 0.0	 5	    1.00000	    0.00000	 33.0	 1	    1.10000	    0.90000;
	2237	 1	 0.0	 0.0	 0.0	 0.0	 5	    1.00000	    0.00000	 110.0	 1	    1.10000	    0.90000;
	2238	 1	 0.0	 0.0	 0.0	 0.0	 5	    1.00000	    0.00000	 110.0	 1	    1.10000	    0.90000;
	2239	 1	 0.0	 0.0	 0.0	 0.0	 5	    1.00000	    0.00000	 220.0	 1	    1.10000	    0.90000;
	2240	 1	 0.0	 0.0	 0.0	 0.0	 5	    1.00000	    0.00000	 220.0	 1	    1.10000	    0.90000;
	2241	 1	 0.0	 0.0	 0.0	 0.0	 5	    1.00000	    0.00000	 220.0	 1	    1.10000	    0.90000;
	2242	 1	 0.0	 0.0	 0.0	 0.0	 5	    1.00000	    0.00000	 220.0	 1	    1.10000	    0.90000;
	2243	 1	 0.0	 0.0	 0.0	 0.0	 5	    1.00000	    0.00000	 220.0	 1	    1.10000	    0.90000;
	2244	 1	 0.0	 0.0	 0.0	 0.0	 5	    1.00000	    0.00000	 220.0	 1	    1.10000	    0.90000;
	2247	 1	 0.0	 0.0	 0.0	 0.0	 5	    1.00000	    0.00000	 220.0	 1	    1.10000	    0.90000;
	2249	 1	 0.0	 0.0	 0.0	 0.0	 5	    1.00000	    0.00000	 220.0	 1	    1.10000	    0.90000;
	2250	 2	 761.802095829	 94.3982822715	 0.0	 269.606850442	 5	    1.00000	    0.00000	 220.0	 1	    1.10000	    0.90000;
	2255	 1	 0.0	 0.0	 0.0	 0.0	 5	    1.00000	    0.00000	 220.0	 1	    1.10000	    0.90000;
	2259	 1	 0.0	 0.0	 0.0	 0.0	 5	    1.00000	    0.00000	 220.0	 1	    1.10000	    0.90000;
	2261	 1	 0.0	 0.0	 0.0	 0.0	 5	    1.00000	    0.00000	 220.0	 1	    1.10000	    0.90000;
	2262	 1	 0.0	 0.0	 0.0	 0.0	 5	    1.00000	    0.00000	 220.0	 1	    1.10000	    0.90000;
	2263	 1	 0.0	 0.0	 0.0	 0.0	 5	    1.00000	    0.00000	 220.0	 1	    1.10000	    0.90000;
	2268	 1	 0.0	 0.0	 0.0	 0.0	 5	    1.00000	    0.00000	 220.0	 1	    1.10000	    0.90000;
	2269	 1	 0.0	 0.0	 0.0	 0.0	 5	    1.00000	    0.00000	 220.0	 1	    1.10000	    0.90000;
	2270	 1	 0.0	 0.0	 0.0	 0.0	 5	    1.00000	    0.00000	 220.0	 1	    1.10000	    0.90000;
	2272	 1	 0.100036499291	 -0.133309902946	 0.0	 0.0	 5	    1.00000	    0.00000	 11.0	 1	    1.10000	    0.90000;
	2273	 1	 19.957788692	 4.78594959717	 0.0	 0.0	 5	    1.00000	    0.00000	 22.0	 1	    1.10000	    0.90000;
	2274	 1	 14.1049076988	 9.04776996574	 0.0	 0.0	 5	    1.00000	    0.00000	 6.6	 1	    1.10000	    0.90000;
	2275	 1	 11.1868502881	 5.3734801524	 0.0	 0.0	 5	    1.00000	    0.00000	 6.6	 1	    1.10000	    0.90000;
	2276	 1	 1.23310786749	 0.521934969552	 0.0	 0.0	 5	    1.00000	    0.00000	 6.6	 1	    1.10000	    0.90000;
	2277	 1	 38.2656446436	 12.0837698976	 0.0	 0.0	 5	    1.00000	    0.00000	 33.0	 1	    1.10000	    0.90000;
	2278	 1	 15.3479710077	 0.179780361418	 0.0	 0.0	 5	    1.00000	    0.00000	 33.0	 1	    1.10000	    0.90000;
	2279	 1	 28.1220396346	 17.0941187588	 0.0	 0.0	 5	    1.00000	    0.00000	 44.0	 1	    1.10000	    0.90000;
	2280	 1	 2.29266869862	 -0.219341768899	 0.0	 0.0	 5	    1.00000	    0.00000	 22.0	 1	    1.10000	    0.90000;
	2281	 1	 -5.28103313928	 1.57365585479	 0.0	 0.0	 5	    1.00000	    0.00000	 11.0	 1	    1.10000	    0.90000;
	2282	 1	 0.595466476637	 0.164574361555	 0.0	 0.0	 5	    1.00000	    0.00000	 22.0	 1	    1.10000	    0.90000;
	2283	 1	 2.86565043063	 0.918062184471	 0.0	 0.0	 5	    1.00000	    0.00000	 22.0	 1	    1.10000	    0.90000;
	2284	 1	 0.102155048288	 -0.0762418273165	 0.0	 0.0	 5	    1.00000	    0.00000	 11.0	 1	    1.10000	    0.90000;
	2285	 1	 14.8939685162	 5.50440336707	 0.0	 0.0	 5	    1.00000	    0.00000	 22.0	 1	    1.10000	    0.90000;
	2286	 1	 12.7940563151	 4.23152802724	 0.0	 0.0	 5	    1.00000	    0.00000	 22.0	 1	    1.10000	    0.90000;
	2287	 1	 32.8164347707	 4.93834843893	 0.0	 0.0	 5	    1.00000	    0.00000	 22.0	 1	    1.10000	    0.90000;
	2288	 1	 4.96928669102	 2.31230359605	 0.0	 0.0	 5	    1.00000	    0.00000	 11.0	 1	    1.10000	    0.90000;
	2289	 1	 11.8889887202	 2.24300578809	 0.0	 0.0	 5	    1.00000	    0.00000	 22.0	 1	    1.10000	    0.90000;
	2290	 1	 35.35571077	 11.4391733684	 0.0	 0.0	 5	    1.00000	    0.00000	 22.0	 1	    1.10000	    0.90000;
	2291	 1	 37.0487818044	 13.5631675561	 0.0	 0.0	 5	    1.00000	    0.00000	 22.0	 1	    1.10000	    0.90000;
	2292	 1	 9.25709532036	 1.28527849578	 0.0	 0.0	 5	    1.00000	    0.00000	 22.0	 1	    1.10000	    0.90000;
	2293	 1	 6.8196875433	 1.66570804022	 0.0	 0.0	 5	    1.00000	    0.00000	 22.0	 1	    1.10000	    0.90000;
	2294	 1	 0.0	 0.0	 0.0	 0.0	 5	    1.00000	    0.00000	 22.0	 1	    1.10000	    0.90000;
	2295	 1	 1.12772044054	 -0.131104909686	 0.0	 0.0	 5	    1.00000	    0.00000	 22.0	 1	    1.10000	    0.90000;
	2296	 1	 3.91795778259	 1.12945814219	 0.0	 0.0	 5	    1.00000	    0.00000	 22.0	 1	    1.10000	    0.90000;
	2297	 1	 0.098455395028	 -0.159011451974	 0.0	 0.0	 5	    1.00000	    0.00000	 22.0	 1	    1.10000	    0.90000;
	2298	 1	 7.00533022556	 0.634266090953	 0.0	 0.0	 5	    1.00000	    0.00000	 11.0	 1	    1.10000	    0.90000;
	2299	 1	 4.76784311741	 -0.357622153863	 0.0	 0.0	 5	    1.00000	    0.00000	 11.0	 1	    1.10000	    0.90000;
	2300	 1	 6.81737639888	 1.52931806039	 0.0	 0.0	 5	    1.00000	    0.00000	 11.0	 1	    1.10000	    0.90000;
	2301	 1	 6.35761379468	 1.10483449831	 0.0	 0.0	 5	    1.00000	    0.00000	 11.0	 1	    1.10000	    0.90000;
	2302	 1	 10.5558431011	 3.5135687363	 0.0	 0.0	 5	    1.00000	    0.00000	 11.0	 1	    1.10000	    0.90000;
	2303	 1	 7.95474462004	 1.73341208709	 0.0	 0.0	 5	    1.00000	    0.00000	 11.0	 1	    1.10000	    0.90000;
	2304	 1	 2.91458506392	 -0.202324895334	 0.0	 0.0	 5	    1.00000	    0.00000	 11.0	 1	    1.10000	    0.90000;
	2305	 1	 3.20082082542	 -0.0306372322947	 0.0	 0.0	 5	    1.00000	    0.00000	 11.0	 1	    1.10000	    0.90000;
	2306	 1	 1.23069639581	 0.148527247898	 0.0	 0.0	 5	    1.00000	    0.00000	 22.0	 1	    1.10000	    0.90000;
	2307	 1	 1.22012735772	 0.141469365238	 0.0	 0.0	 5	    1.00000	    0.00000	 22.0	 1	    1.10000	    0.90000;
	2308	 1	 2.69741274876	 -0.518176212408	 0.0	 0.0	 5	    1.00000	    0.00000	 11.0	 1	    1.10000	    0.90000;
	2309	 1	 3.66248952774	 0.268230288469	 0.0	 0.0	 5	    1.00000	    0.00000	 11.0	 1	    1.10000	    0.90000;
	2310	 1	 4.3878279769	 1.24416995375	 0.0	 0.0	 5	    1.00000	    0.00000	 11.0	 1	    1.10000	    0.90000;
	2311	 1	 11.3146026349	 3.43865919711	 0.0	 0.0	 5	    1.00000	    0.00000	 11.0	 1	    1.10000	    0.90000;
	2312	 1	 3.43738724451	 1.20643423757	 0.0	 0.0	 5	    1.00000	    0.00000	 11.0	 1	    1.10000	    0.90000;
	2313	 1	 12.7508150782	 0.933697498767	 0.0	 0.0	 5	    1.00000	    0.00000	 22.0	 1	    1.10000	    0.90000;
	2314	 1	 10.6750374615	 2.72001893004	 0.0	 0.0	 5	    1.00000	    0.00000	 22.0	 1	    1.10000	    0.90000;
	2315	 1	 29.5849414279	 5.38569534337	 0.0	 0.0	 5	    1.00000	    0.00000	 22.0	 1	    1.10000	    0.90000;
	2316	 1	 5.9921608533	 2.30522543602	 0.0	 0.0	 5	    1.00000	    0.00000	 22.0	 1	    1.10000	    0.90000;
	2317	 1	 9.06709590132	 2.28521256108	 0.0	 0.0	 5	    1.00000	    0.00000	 22.0	 1	    1.10000	    0.90000;
	2318	 1	 10.3675748841	 -0.0485898785247	 0.0	 0.0	 5	    1.00000	    0.00000	 22.0	 1	    1.10000	    0.90000;
	2319	 1	 0.0	 0.0	 0.0	 0.0	 5	    1.00000	    0.00000	 22.0	 1	    1.10000	    0.90000;
	2320	 1	 16.1407656257	 3.39817422641	 0.0	 0.0	 5	    1.00000	    0.00000	 22.0	 1	    1.10000	    0.90000;
	2321	 1	 5.5121708044	 -0.297153097662	 0.0	 0.0	 5	    1.00000	    0.00000	 22.0	 1	    1.10000	    0.90000;
	2322	 1	 0.268542500051	 0.319257627793	 0.0	 0.0	 5	    1.00000	    0.00000	 11.0	 1	    1.10000	    0.90000;
	2323	 1	 0.0	 0.0	 0.0	 0.0	 5	    1.00000	    0.00000	 110.0	 1	    1.10000	    0.90000;
	2324	 1	 0.0	 0.0	 0.0	 0.0	 5	    1.00000	    0.00000	 1.0	 1	    1.10000	    0.90000;
	2325	 1	 0.0	 0.0	 0.0	 0.0	 5	    1.00000	    0.00000	 1.0	 1	    1.10000	    0.90000;
	2326	 1	 0.0	 0.0	 0.0	 0.0	 5	    1.00000	    0.00000	 1.0	 1	    1.10000	    0.90000;
	2328	 1	 0.0	 0.0	 0.0	 0.0	 5	    1.00000	    0.00000	 22.0	 1	    1.10000	    0.90000;
	2329	 2	 0.0	 0.0	 0.0	 0.0	 5	    1.00000	    0.00000	 11.0	 1	    1.10000	    0.90000;
	2330	 2	 0.0	 0.0	 0.0	 0.0	 5	    1.00000	    0.00000	 11.0	 1	    1.10000	    0.90000;
	2331	 2	 0.0	 0.0	 0.0	 0.0	 5	    1.00000	    0.00000	 11.0	 1	    1.10000	    0.90000;
	2332	 2	 0.0	 0.0	 0.0	 0.0	 5	    1.00000	    0.00000	 11.0	 1	    1.10000	    0.90000;
	2333	 2	 0.0	 0.0	 0.0	 0.0	 5	    1.00000	    0.00000	 11.0	 1	    1.10000	    0.90000;
	2334	 2	 0.0	 0.0	 0.0	 0.0	 5	    1.00000	    0.00000	 11.0	 1	    1.10000	    0.90000;
	2335	 2	 0.0	 0.0	 0.0	 0.0	 5	    1.00000	    0.00000	 11.0	 1	    1.10000	    0.90000;
	2336	 1	 32.7033081653	 10.6544866268	 0.0	 0.0	 5	    1.00000	    0.00000	 33.0	 1	    1.10000	    0.90000;
	2337	 1	 49.5337823698	 16.2479222761	 0.0	 0.0	 5	    1.00000	    0.00000	 11.0	 1	    1.10000	    0.90000;
	2338	 1	 1.71129514995	 2.64945633324	 0.0	 0.0	 5	    1.00000	    0.00000	 22.0	 1	    1.10000	    0.90000;
	2339	 1	 15.7169929211	 -4.31763789598	 0.0	 0.0	 5	    1.00000	    0.00000	 6.6	 1	    1.10000	    0.90000;
	10108	 1	 0.0	 0.0	 0.0	 0.0	 5	    1.00000	    0.00000	 110.0	 1	    1.10000	    0.90000;
	10109	 1	 0.0	 0.0	 0.0	 0.0	 5	    1.00000	    0.00000	 110.0	 1	    1.10000	    0.90000;
	10110	 1	 0.0	 0.0	 0.0	 0.0	 5	    1.00000	    0.00000	 110.0	 1	    1.10000	    0.90000;
	10111	 1	 0.0	 0.0	 0.0	 0.0	 5	    1.00000	    0.00000	 110.0	 1	    1.10000	    0.90000;
	10112	 1	 0.0	 0.0	 0.0	 0.0	 5	    1.00000	    0.00000	 110.0	 1	    1.10000	    0.90000;
	10113	 1	 0.0	 0.0	 0.0	 0.0	 5	    1.00000	    0.00000	 110.0	 1	    1.10000	    0.90000;
];

%% generator data
%	bus	Pg	Qg	Qmax	Qmin	Vg	mBase	status	Pmax	Pmin
mpc.gen = [
	2114	 75.0	 10.0	 110.0	 -90.0	 1.0	 147.696965935	 1	 150.0	 0.0;
	2115	 75.0	 5.0	 120.0	 -110.0	 1.0	 147.170128863	 1	 150.0	 0.0;
	2116	 50.0	 10.0	 60.0	 -40.0	 1.0	 99.8268229078	 1	 100.0	 0.0;
	2117	 30.0	 0.0	 20.0	 -20.0	 1.0	 59.56099006	 1	 60.0	 0.0;
	2118	 65.0	 5.0	 90.0	 -80.0	 1.0	 123.244468958	 1	 130.0	 0.0;
	2119	 20.0	 0.0	 20.0	 -20.0	 1.0	 37.8683050583	 1	 40.0	 0.0;
	2123	 40.0	 10.0	 50.0	 -30.0	 1.0	 72.6031327684	 1	 80.0	 0.0;
	2124	 100.0	 40.0	 120.0	 -40.0	 1.0	 192.647608941	 1	 200.0	 0.0;
	2125	 50.0	 25.0	 70.0	 -20.0	 1.0	 96.002555525	 1	 100.0	 0.0;
	2126	 10.0	 5.0	 20.0	 -10.0	 1.0	 16.4278021573	 1	 20.0	 0.0;
	2127	 25.0	 0.0	 20.0	 -20.0	 1.0	 40.33056631	 1	 50.0	 0.0;
	2128	 25.0	 0.0	 20.0	 -20.0	 1.0	 40.0795192	 1	 50.0	 0.0;
	2129	 20.0	 5.0	 20.0	 -10.0	 1.0	 33.6463986922	 1	 40.0	 0.0;
	2130	 20.0	 5.0	 20.0	 -10.0	 1.0	 33.3273031253	 1	 40.0	 0.0;
	2131	 20.0	 5.0	 20.0	 -10.0	 1.0	 34.2333408685	 1	 40.0	 0.0;
	2132	 20.0	 10.0	 30.0	 -10.0	 1.0	 37.7499579499	 1	 40.0	 0.0;
	2133	 30.0	 10.0	 40.0	 -20.0	 1.0	 53.9771218854	 1	 60.0	 0.0;
	2134	 85.0	 10.0	 70.0	 -50.0	 1.0	 169.17400955	 1	 170.0	 0.0;
	2135	 90.0	 5.0	 80.0	 -70.0	 1.0	 175.344738018	 1	 180.0	 0.0;
	2136	 85.0	 10.0	 80.0	 -60.0	 1.0	 168.121105693	 1	 170.0	 0.0;
	2138	 20.0	 5.0	 40.0	 -30.0	 1.0	 33.7659113865	 1	 40.0	 0.0;
	2139	 20.0	 5.0	 20.0	 -10.0	 1.0	 36.76534479	 1	 40.0	 0.0;
	2140	 35.0	 10.0	 70.0	 -50.0	 1.0	 67.9893259308	 1	 70.0	 0.0;
	2142	 35.0	 15.0	 70.0	 -40.0	 1.0	 68.3699770729	 1	 70.0	 0.0;
	2143	 35.0	 15.0	 70.0	 -40.0	 1.0	 66.635863774	 1	 70.0	 0.0;
	2144	 35.0	 15.0	 70.0	 -40.0	 1.0	 67.2894188494	 1	 70.0	 0.0;
	2148	 45.0	 -5.0	 10.0	 -20.0	 1.0	 83.725310623	 1	 90.0	 0.0;
	2329	 35.0	 5.0	 30.0	 -20.0	 1.0	 65.7624427797	 1	 70.0	 0.0;
	2330	 20.0	 5.0	 20.0	 -10.0	 1.0	 36.1447293924	 1	 40.0	 0.0;
	2331	 20.0	 0.0	 20.0	 -20.0	 1.0	 32.9465583476	 1	 40.0	 0.0;
	2332	 20.0	 -5.0	 10.0	 -20.0	 1.0	 34.0468555721	 1	 40.0	 0.0;
	2333	 10.0	 0.0	 10.0	 -10.0	 1.0	 16.3866927561	 1	 20.0	 0.0;
	2334	 20.0	 5.0	 20.0	 -10.0	 1.0	 32.5552539895	 1	 40.0	 0.0;
	2335	 20.0	 5.0	 20.0	 -10.0	 1.0	 31.9203887789	 1	 40.0	 0.0;
	2250	 275.0	 5.0	 550.0	 -540.0	 1.0	 5.43358585262	 1	 550.0	 0.0;
];

%% generator cost data
%	2	startup	shutdown	n	c(n-1)	...	c0
mpc.gencost = [
	2	 0.0	 0.0	 3	   0.000000	   0.001000	   0.000000;
	2	 0.0	 0.0	 3	   0.000000	   0.001000	   0.000000;
	2	 0.0	 0.0	 3	   0.000000	   0.001000	   0.000000;
	2	 0.0	 0.0	 3	   0.000000	   0.001000	   0.000000;
	2	 0.0	 0.0	 3	   0.000000	   0.001000	   0.000000;
	2	 0.0	 0.0	 3	   0.000000	   0.001000	   0.000000;
	2	 0.0	 0.0	 3	   0.000000	   0.001000	   0.000000;
	2	 100.0	 0.0	 3	   0.000000	  12.021005	   0.000000;
	2	 0.0	 0.0	 3	   0.000000	   0.001000	   0.000000;
	2	 0.0	 0.0	 3	   0.000000	   0.001000	   0.000000;
	2	 0.0	 0.0	 3	   0.000000	   0.001000	   0.000000;
	2	 0.0	 0.0	 3	   0.000000	   0.001000	   0.000000;
	2	 0.0	 0.0	 3	   0.000000	   0.001000	   0.000000;
	2	 0.0	 0.0	 3	   0.000000	   0.001000	   0.000000;
	2	 0.0	 0.0	 3	   0.000000	   0.001000	   0.000000;
	2	 0.0	 0.0	 3	   0.000000	   0.001000	   0.000000;
	2	 0.0	 0.0	 3	   0.000000	   0.001000	   0.000000;
	2	 0.0	 0.0	 3	   0.000000	   0.001000	   0.000000;
	2	 0.0	 0.0	 3	   0.000000	   0.001000	   0.000000;
	2	 0.0	 0.0	 3	   0.000000	   0.001000	   0.000000;
	2	 0.0	 0.0	 3	   0.000000	   0.001000	   0.000000;
	2	 100.0	 0.0	 3	   0.000000	  12.021005	   0.000000;
	2	 0.0	 0.0	 3	   0.000000	   0.001000	   0.000000;
	2	 0.0	 0.0	 3	   0.000000	   0.001000	   0.000000;
	2	 0.0	 0.0	 3	   0.000000	   0.001000	   0.000000;
	2	 0.0	 0.0	 3	   0.000000	   0.001000	   0.000000;
	2	 0.0	 0.0	 3	   0.000000	   0.001000	   0.000000;
	2	 0.0	 0.0	 3	   0.000000	   0.001000	   0.000000;
	2	 0.0	 0.0	 3	   0.000000	   0.001000	   0.000000;
	2	 100.0	 0.0	 3	   0.000000	  12.021005	   0.000000;
	2	 0.0	 0.0	 3	   0.000000	   0.001000	   0.000000;
	2	 0.0	 0.0	 3	   0.000000	   0.001000	   0.000000;
	2	 0.0	 0.0	 3	   0.000000	   0.001000	   0.000000;
	2	 0.0	 0.0	 3	   0.000000	   0.001000	   0.000000;
	2	 100.0	 0.0	 3	   0.000000	   9.921005	   0.000000;
];

%% branch data
%	fbus	tbus	r	x	b	rateA	rateB	rateC	ratio	angle	status	angmin	angmax
mpc.branch = [
	2152	 2156	 0.00834450528496	 0.0371057756822	 0.00388866725242	 160.0	 160.0	 160.0	 0.0	 0.0	 1	 -30.0	 30.0;
	2153	 2156	 0.006612602031	 0.017109146624	 0.00165633454293	 115.0	 115.0	 115.0	 0.0	 0.0	 1	 -30.0	 30.0;
	2153	 2156	 0.00550651928481	 0.0149698399927	 0.00172714817226	 119.0	 119.0	 119.0	 0.0	 0.0	 1	 -30.0	 30.0;
	2155	 2153	 0.01393972708	 0.102926742936	 0.0123074726317	 218.0	 218.0	 218.0	 0.0	 0.0	 1	 -30.0	 30.0;
	2156	 2157	 0.02545334659	 0.0721554038461	 0.00680053036105	 122.0	 122.0	 122.0	 0.0	 0.0	 1	 -30.0	 30.0;
	2157	 2172	 0.0299991099129	 0.0854487027202	 0.00844874817832	 122.0	 122.0	 122.0	 0.0	 0.0	 1	 -30.0	 30.0;
	2158	 2153	 0.0446317172529	 0.0702443516722	 0.00557138734468	 85.0	 85.0	 85.0	 0.0	 0.0	 1	 -30.0	 30.0;
	2160	 2166	 0.00221781807094	 0.0150542312874	 0.00163558931096	 207.0	 207.0	 207.0	 0.0	 0.0	 1	 -30.0	 30.0;
	2161	 2166	 0.00979486179023	 0.0249472030214	 0.00296859624928	 114.0	 114.0	 114.0	 0.0	 0.0	 1	 -30.0	 30.0;
	2161	 2167	 0.022569879982	 0.0598841777916	 0.00660973093147	 117.0	 117.0	 117.0	 0.0	 0.0	 1	 -30.0	 30.0;
	2162	 2163	 0.0368750920058	 0.0712716392955	 0.0162320841232	 97.0	 97.0	 97.0	 0.0	 0.0	 1	 -30.0	 30.0;
	2162	 2164	 0.133172727607	 0.24271488602	 0.0159793607747	 93.0	 93.0	 93.0	 0.0	 0.0	 1	 -30.0	 30.0;
	2162	 2229	 0.0125014987677	 0.0906216808787	 0.0340298995427	 215.0	 215.0	 215.0	 0.0	 0.0	 1	 -30.0	 30.0;
	2163	 2164	 0.100609148637	 0.176248238354	 0.0157835522057	 91.0	 91.0	 91.0	 0.0	 0.0	 1	 -30.0	 30.0;
	2164	 2165	 0.00386886836307	 0.0103769073008	 0.00115304896291	 118.0	 118.0	 118.0	 0.0	 0.0	 1	 -30.0	 30.0;
	2164	 2166	 0.0548456849238	 0.146051026867	 0.0158653891447	 117.0	 117.0	 117.0	 0.0	 0.0	 1	 -30.0	 30.0;
	2164	 2226	 0.0322012007642	 0.0849837029603	 0.0090492049762	 117.0	 117.0	 117.0	 0.0	 0.0	 1	 -30.0	 30.0;
	2165	 2167	 0.0326571041771	 0.0841055311883	 0.00955746842655	 115.0	 115.0	 115.0	 0.0	 0.0	 1	 -30.0	 30.0;
	2166	 2168	 0.00948450876777	 0.050407684576	 0.00622709612376	 178.0	 178.0	 178.0	 0.0	 0.0	 1	 -30.0	 30.0;
	2166	 2169	 0.0213521373288	 0.0831676316532	 0.00938905109974	 148.0	 148.0	 148.0	 0.0	 0.0	 1	 -30.0	 30.0;
	2166	 2170	 0.00648433744151	 0.0344385667948	 0.00404136947009	 178.0	 178.0	 178.0	 0.0	 0.0	 1	 -30.0	 30.0;
	2166	 2170	 0.00693898262637	 0.0326422499585	 0.00425079271419	 166.0	 166.0	 166.0	 0.0	 0.0	 1	 -30.0	 30.0;
	2168	 2169	 0.0123307894492	 0.032810616942	 0.00347130369578	 117.0	 117.0	 117.0	 0.0	 0.0	 1	 -30.0	 30.0;
	2171	 2172	 0.0301156643856	 0.0796046618723	 0.00849322719584	 117.0	 117.0	 117.0	 0.0	 0.0	 1	 -30.0	 30.0;
	2172	 2227	 0.0438537854483	 0.117773755721	 0.0107526255948	 118.0	 118.0	 118.0	 0.0	 0.0	 1	 -30.0	 30.0;
	2173	 2175	 0.003635470736	 0.00979922927223	 0.00132046023133	 118.0	 118.0	 118.0	 0.0	 0.0	 1	 -30.0	 30.0;
	2173	 2228	 0.00817779703513	 0.0166973252526	 0.0016922451392	 100.0	 100.0	 100.0	 0.0	 0.0	 1	 -30.0	 30.0;
	2174	 2175	 0.0034524341182	 0.00941777568866	 0.00106530630905	 119.0	 119.0	 119.0	 0.0	 0.0	 1	 -30.0	 30.0;
	2176	 2177	 0.00544398463072	 0.018950843333	 0.00130446062224	 138.0	 138.0	 138.0	 0.0	 0.0	 1	 -30.0	 30.0;
	2176	 2178	 0.016235662227	 0.0728054892606	 0.0019680678417	 161.0	 161.0	 161.0	 0.0	 0.0	 1	 -30.0	 30.0;
	2176	 2224	 0.0394408773044	 0.137952632759	 0.00414441901073	 138.0	 138.0	 138.0	 0.0	 0.0	 1	 -30.0	 30.0;
	2177	 2224	 0.0473672257593	 0.159966352393	 0.00395088193268	 135.0	 135.0	 135.0	 0.0	 0.0	 1	 -30.0	 30.0;
	2178	 2238	 0.0341895124321	 0.134301567013	 0.0182315273713	 148.0	 148.0	 148.0	 0.0	 0.0	 1	 -30.0	 30.0;
	2180	 2126	 0.0507059526851	 0.686745299128	 0.00135414011457	 46.0	 46.0	 46.0	 1.0	 0.0	 1	 -30.0	 30.0;
	2180	 2189	 0.0392573585555	 0.058002956482	 0.00494046371803	 82.0	 82.0	 82.0	 0.0	 0.0	 1	 -30.0	 30.0;
	2180	 2323	 0.0300776910052	 0.0518558105006	 0.00394640633369	 90.0	 90.0	 90.0	 0.0	 0.0	 1	 -30.0	 30.0;
	2183	 2217	 0.0220924302279	 0.0648336640048	 0.0060613908166	 124.0	 124.0	 124.0	 0.0	 0.0	 1	 -30.0	 30.0;
	2183	 2323	 0.0189442508494	 0.057645648069	 0.00509880770957	 127.0	 127.0	 127.0	 0.0	 0.0	 1	 -30.0	 30.0;
	2217	 2323	 0.0418895350015	 0.11629788021	 0.0109106452358	 120.0	 120.0	 120.0	 0.0	 0.0	 1	 -30.0	 30.0;
	2186	 2190	 0.0219553756497	 0.0790700124031	 0.00969959060365	 141.0	 141.0	 141.0	 0.0	 0.0	 1	 -30.0	 30.0;
	2186	 2323	 0.0932669534612	 0.18336831322	 0.0159926383185	 98.0	 98.0	 98.0	 0.0	 0.0	 1	 -30.0	 30.0;