%%%%%%%%%%%%%%%%%%%%%%%%%%%%%%%%%%%%%%%%%%%%%%%%%%%%%%%%%%%%%%%%%%%%%%%%%%%
%%%%                                                                  %%%%%
%%%%    IEEE PES Power Grid Library - Optimal Power Flow - v17.07     %%%%%
%%%%          (https://github.com/power-grid-lib/pglib-opf)           %%%%%
%%%%               Benchmark Group - Typical Operations               %%%%%
%%%%                         26 - June - 2017                         %%%%%
%%%%                                                                  %%%%%
%%%%%%%%%%%%%%%%%%%%%%%%%%%%%%%%%%%%%%%%%%%%%%%%%%%%%%%%%%%%%%%%%%%%%%%%%%%
%
%   Power flow data for Polish system - winter 2003-04 evening peak.
%   Please see CASEFORMAT for details on the case file format.
%
%   This case represents the Polish 400, 220 and 110 kV networks during
%   winter 2003-04 evening peak conditions. Multiple centrally
%   dispatchable generators at a bus have not been aggregated.
%   Generators that are not centrally dispatchable in the Polish
%   energy market are given a cost of zero.
%
%   Copyright (c) 2010 by Roman Korab <roman.korab@polsl.pl>
%   Licensed under the Creative Commons Attribution 4.0
%   International license, http://creativecommons.org/licenses/by/4.0/
%
function mpc = pglib_opf_case2746wp_mp
mpc.version = '2';
mpc.baseMVA = 100.0;

%% area data
%	area	refbus
mpc.areas = [
	1	 18;
];

%% bus data
%	bus_i	type	Pd	Qd	Gs	Bs	area	Vm	Va	baseKV	zone	Vmax	Vmin
mpc.bus = [
	1	 1	 0.0	 0.0	 0.0	 0.0	 1	    1.10033	   -0.63378	 220.0	 1	    1.11000	    0.95000;
	2	 1	 0.0	 0.0	 0.0	 0.0	 1	    1.10175	    1.19649	 220.0	 1	    1.11000	    0.95000;
	3	 1	 0.0	 0.0	 0.0	 0.0	 1	    1.06395	  -26.51419	 220.0	 1	    1.11000	    0.95000;
	4	 1	 0.0	 0.0	 0.0	 0.0	 1	    1.08489	   -6.13064	 220.0	 1	    1.11000	    0.95000;
	5	 1	 0.0	 0.0	 0.0	 0.0	 1	    1.08495	   -6.13327	 220.0	 1	    1.11000	    0.95000;
	6	 1	 0.0	 0.0	 0.0	 0.0	 1	    1.05936	  -17.77039	 220.0	 1	    1.11000	    0.95000;
	7	 1	 0.0	 0.0	 0.0	 0.0	 1	    1.05951	  -17.76232	 220.0	 1	    1.11000	    0.95000;
	8	 1	 0.0	 0.0	 0.0	 0.0	 1	    1.02884	  -13.46241	 400.0	 1	    1.05000	    0.95000;
	9	 1	 0.0	 0.0	 0.0	 0.0	 1	    1.02886	  -13.45785	 400.0	 1	    1.05000	    0.95000;
	10	 1	 0.0	 0.0	 0.0	 0.0	 1	    1.04060	  -17.76440	 220.0	 1	    1.11000	    0.95000;
	11	 1	 0.0	 0.0	 0.0	 0.0	 1	    1.04049	  -17.74989	 220.0	 1	    1.11000	    0.95000;
	12	 1	 0.0	 0.0	 0.0	 0.0	 1	    1.04053	  -17.74061	 220.0	 1	    1.11000	    0.95000;
	13	 1	 0.0	 0.0	 0.0	 0.0	 1	    1.02743	  -11.70582	 400.0	 1	    1.05000	    0.95000;
	14	 1	 0.0	 0.0	 0.0	 0.0	 1	    1.02747	  -11.69569	 400.0	 1	    1.05000	    0.95000;
	15	 1	 0.0	 0.0	 0.0	 0.0	 1	    1.02778	  -16.55803	 400.0	 1	    1.05000	    0.95000;
	16	 1	 0.0	 0.0	 0.0	 0.0	 1	    1.02778	  -16.55803	 400.0	 1	    1.05000	    0.95000;
	17	 2	 11.0	 40.0	 0.0	 0.0	 1	    1.10446	  -21.46991	 220.0	 1	    1.11000	    0.95000;
	18	 2	 14.0	 40.0	 0.0	 0.0	 1	    1.10448	  -21.46847	 220.0	 1	    1.11000	    0.95000;
	19	 1	 0.0	 0.0	 0.0	 0.0	 1	    1.08982	   -4.96980	 220.0	 1	    1.11000	    0.95000;
	20	 1	 0.0	 0.0	 0.0	 0.0	 1	    1.08986	   -4.96867	 220.0	 1	    1.11000	    0.95000;
	21	 1	 0.0	 0.0	 0.0	 0.0	 1	    1.06035	  -19.24773	 220.0	 1	    1.11000	    0.95000;
	22	 1	 0.0	 0.0	 0.0	 0.0	 1	    1.06028	  -19.24961	 220.0	 1	    1.11000	    0.95000;
	23	 1	 0.0	 0.0	 0.0	 0.0	 1	    1.04385	  -17.63569	 220.0	 1	    1.11000	    0.95000;
	24	 1	 0.0	 0.0	 0.0	 0.0	 1	    1.09185	   -2.83063	 220.0	 1	    1.11000	    0.95000;
	25	 1	 0.0	 0.0	 0.0	 0.0	 1	    1.01542	  -13.85817	 400.0	 1	    1.05000	    0.95000;
	26	 2	 46.738	 72.054	 0.0	 0.0	 1	    1.11000	   -0.27015	 220.0	 1	    1.11000	    0.95000;
	27	 2	 85.493	 122.06	 0.0	 0.0	 1	    1.11000	    1.45587	 220.0	 1	    1.11000	    0.95000;
	28	 3	 60.0	 110.0	 0.0	 0.0	 1	    1.04604	   -0.00000	 400.0	 1	    1.05000	    0.95000;
	29	 2	 60.097	 90.0	 0.0	 0.0	 1	    1.04608	    0.00580	 400.0	 1	    1.05000	    0.95000;
	30	 1	 0.0	 0.0	 0.0	 0.0	 1	    1.04796	  -18.55240	 220.0	 1	    1.11000	    0.95000;
	31	 1	 0.0	 0.0	 0.0	 0.0	 1	    1.04573	   -1.43689	 400.0	 1	    1.05000	    0.95000;
	32	 1	 0.0	 0.0	 0.0	 0.0	 1	    1.03828	  -18.10902	 220.0	 1	    1.11000	    0.95000;
	33	 1	 0.0	 0.0	 0.0	 0.0	 1	    1.09186	   -2.82956	 220.0	 1	    1.11000	    0.95000;
	34	 1	 0.0	 0.0	 0.0	 0.0	 1	    1.09250	   -9.55944	 220.0	 1	    1.11000	    0.95000;
	35	 1	 0.0	 0.0	 0.0	 0.0	 1	    1.08951	  -13.14850	 220.0	 2	    1.11000	    0.95000;
	36	 1	 0.0	 0.0	 0.0	 0.0	 1	    1.09250	  -12.83885	 220.0	 2	    1.11000	    0.95000;
	37	 1	 0.0	 0.0	 0.0	 0.0	 1	    1.09704	  -11.08874	 220.0	 2	    1.11000	    0.95000;
	38	 1	 0.0	 0.0	 0.0	 0.0	 1	    1.09703	  -11.09313	 220.0	 2	    1.11000	    0.95000;
	39	 1	 0.0	 0.0	 0.0	 0.0	 1	    1.07608	  -15.99292	 220.0	 2	    1.11000	    0.95000;
	40	 1	 0.0	 0.0	 0.0	 0.0	 1	    1.10410	   -9.38740	 220.0	 2	    1.11000	    0.95000;
	41	 1	 0.0	 0.0	 0.0	 0.0	 1	    1.10406	   -9.38561	 220.0	 2	    1.11000	    0.95000;
	42	 1	 0.0	 0.0	 0.0	 0.0	 1	    1.04359	   -9.73263	 400.0	 2	    1.05000	    0.95000;
	43	 2	 11.436	 0.0	 0.0	 0.0	 1	    1.11000	   -9.84365	 220.0	 2	    1.11000	    0.95000;
	44	 2	 24.0	 0.0	 0.0	 0.0	 1	    1.11000	   -9.81600	 220.0	 2	    1.11000	    0.95000;
	45	 2	 20.0	 0.0	 0.0	 0.0	 1	    1.04865	  -10.55206	 400.0	 2	    1.05000	    0.95000;
	46	 1	 0.0	 0.0	 0.0	 0.0	 1	    1.04868	  -10.55383	 400.0	 2	    1.05000	    0.95000;
	47	 1	 0.0	 0.0	 0.0	 0.0	 1	    1.10033	   -9.97750	 220.0	 2	    1.11000	    0.95000;
	48	 1	 0.0	 0.0	 0.0	 0.0	 1	    1.03532	  -15.48908	 400.0	 2	    1.05000	    0.95000;
	49	 1	 0.0	 0.0	 0.0	 0.0	 1	    1.03529	  -15.49807	 400.0	 2	    1.05000	    0.95000;
	50	 1	 0.0	 0.0	 0.0	 0.0	 1	    1.05000	  -11.68995	 400.0	 2	    1.05000	    0.95000;
	51	 1	 0.0	 0.0	 0.0	 0.0	 1	    1.08320	  -14.83141	 220.0	 2	    1.11000	    0.95000;
	52	 1	 0.0	 0.0	 0.0	 0.0	 1	    1.08319	  -14.83103	 220.0	 2	    1.11000	    0.95000;
	53	 1	 0.0	 0.0	 0.0	 0.0	 1	    1.04402	  -11.17504	 400.0	 2	    1.05000	    0.95000;
	54	 1	 0.0	 0.0	 0.0	 0.0	 1	    1.04402	  -11.17344	 400.0	 2	    1.05000	    0.95000;
	55	 2	 12.0	 0.0	 0.0	 0.0	 1	    1.10261	   -9.40415	 220.0	 2	    1.11000	    0.95000;
	56	 2	 11.436	 0.0	 0.0	 0.0	 1	    1.10252	   -9.40094	 220.0	 2	    1.11000	    0.95000;
	57	 2	 12.0	 0.0	 0.0	 0.0	 1	    1.04567	  -10.15964	 400.0	 2	    1.05000	    0.95000;
	58	 2	 11.436	 0.0	 0.0	 0.0	 1	    1.04569	  -10.16461	 400.0	 2	    1.05000	    0.95000;
	59	 2	 167.518	 60.0	 0.0	 0.0	 1	    1.10173	  -11.32096	 220.0	 2	    1.11000	    0.95000;
	60	 1	 0.0	 0.0	 0.0	 0.0	 1	    1.10174	  -11.32099	 220.0	 2	    1.11000	    0.95000;
	61	 1	 0.0	 0.0	 0.0	 0.0	 1	    1.10055	  -10.13550	 220.0	 2	    1.11000	    0.95000;
	62	 1	 0.0	 0.0	 0.0	 0.0	 1	    1.10360	  -11.06659	 220.0	 2	    1.11000	    0.95000;
	63	 1	 0.0	 0.0	 0.0	 0.0	 1	    1.10360	  -11.06981	 220.0	 2	    1.11000	    0.95000;
	64	 1	 0.0	 0.0	 0.0	 0.0	 1	    1.04687	  -11.75092	 400.0	 2	    1.05000	    0.95000;
	65	 1	 0.0	 0.0	 0.0	 0.0	 1	    1.04685	  -11.76302	 400.0	 2	    1.05000	    0.95000;
	66	 1	 0.0	 0.0	 0.0	 0.0	 1	    1.08933	  -12.66685	 220.0	 2	    1.11000	    0.95000;
	67	 1	 0.0	 0.0	 0.0	 0.0	 1	    1.09146	  -12.42209	 220.0	 2	    1.11000	    0.95000;
	68	 1	 0.0	 0.0	 0.0	 0.0	 1	    1.08362	  -14.31967	 220.0	 2	    1.11000	    0.95000;
	69	 1	 0.0	 0.0	 0.0	 0.0	 1	    1.10054	   -4.47595	 220.0	 3	    1.11000	    0.95000;
	70	 1	 7.123	 0.0	 0.0	 0.0	 1	    1.09805	   -9.69820	 220.0	 3	    1.11000	    0.95000;
	71	 1	 8.31	 0.933	 0.0	 0.0	 1	    1.09802	   -9.70088	 220.0	 3	    1.11000	    0.95000;
	72	 1	 0.0	 0.0	 0.0	 0.0	 1	    1.10592	   -4.35012	 220.0	 3	    1.11000	    0.95000;
	73	 1	 0.0	 0.0	 0.0	 0.0	 1	    1.10597	   -4.34101	 220.0	 3	    1.11000	    0.95000;
	74	 1	 0.0	 0.0	 0.0	 0.0	 1	    1.10133	   -4.76740	 220.0	 3	    1.11000	    0.95000;
	75	 1	 0.0	 0.0	 0.0	 0.0	 1	    1.10129	   -4.77153	 220.0	 3	    1.11000	    0.95000;
	76	 1	 0.0	 0.0	 0.0	 0.0	 1	    1.10849	   -3.41569	 220.0	 3	    1.11000	    0.95000;
	77	 1	 0.0	 0.0	 0.0	 0.0	 1	    1.10846	   -3.42367	 220.0	 3	    1.11000	    0.95000;
	78	 2	 27.0	 70.0	 0.0	 0.0	 1	    1.11000	   -3.73041	 220.0	 3	    1.11000	    0.95000;
	79	 2	 9.0	 21.0	 0.0	 0.0	 1	    1.10914	   -3.90487	 220.0	 3	    1.11000	    0.95000;
	80	 1	 10.328	 2.61	 0.0	 0.0	 1	    1.09847	   -5.13610	 220.0	 3	    1.11000	    0.95000;
	81	 1	 0.0	 0.0	 0.0	 0.0	 1	    1.09849	   -5.13483	 220.0	 3	    1.11000	    0.95000;
	82	 2	 35.0	 108.0	 0.0	 0.0	 1	    1.04336	   -3.66512	 400.0	 3	    1.05000	    0.95000;
	83	 1	 0.0	 0.0	 0.0	 0.0	 1	    1.10850	   -6.51362	 220.0	 3	    1.11000	    0.95000;
	84	 1	 0.0	 0.0	 0.0	 0.0	 1	    1.10653	   -3.93299	 220.0	 3	    1.11000	    0.95000;
	85	 1	 0.0	 0.0	 0.0	 0.0	 1	    1.10654	   -3.93489	 220.0	 3	    1.11000	    0.95000;
	86	 1	 37.893	 12.351	 0.0	 0.0	 1	    1.10113	   -4.34764	 220.0	 3	    1.11000	    0.95000;
	87	 1	 0.0	 0.0	 0.0	 0.0	 1	    1.10110	   -4.35358	 220.0	 3	    1.11000	    0.95000;
	88	 1	 0.0	 0.0	 0.0	 0.0	 1	    1.10404	   -3.87076	 220.0	 3	    1.11000	    0.95000;
	89	 1	 0.0	 0.0	 0.0	 0.0	 1	    1.10402	   -3.87212	 220.0	 3	    1.11000	    0.95000;
	90	 1	 0.0	 0.0	 0.0	 0.0	 1	    1.10436	   -3.90435	 220.0	 3	    1.11000	    0.95000;
	91	 1	 0.0	 0.0	 0.0	 0.0	 1	    1.10433	   -3.90988	 220.0	 3	    1.11000	    0.95000;
	92	 1	 0.0	 0.0	 0.0	 0.0	 1	    1.04558	   -2.28085	 400.0	 3	    1.05000	    0.95000;
	93	 1	 0.0	 0.0	 0.0	 0.0	 1	    1.04559	   -2.28272	 400.0	 3	    1.05000	    0.95000;
	94	 1	 0.0	 0.0	 0.0	 0.0	 1	    1.10783	   -3.64272	 220.0	 3	    1.11000	    0.95000;
	95	 1	 0.0	 0.0	 0.0	 0.0	 1	    1.10787	   -3.64205	 220.0	 3	    1.11000	    0.95000;
	96	 1	 0.0	 0.0	 0.0	 0.0	 1	    1.10521	   -5.57641	 220.0	 3	    1.11000	    0.95000;
	97	 1	 0.0	 0.0	 0.0	 0.0	 1	    1.10524	   -5.58107	 220.0	 3	    1.11000	    0.95000;
	98	 1	 16.027	 7.274	 0.0	 0.0	 1	    1.10545	   -4.67114	 220.0	 3	    1.11000	    0.95000;
	99	 1	 7.764	 0.258	 0.0	 0.0	 1	    1.10544	   -4.67618	 220.0	 3	    1.11000	    0.95000;
	100	 1	 0.0	 0.0	 0.0	 0.0	 1	    1.09810	   -9.68181	 220.0	 3	    1.11000	    0.95000;
	101	 1	 0.0	 0.0	 0.0	 0.0	 1	    1.09808	   -9.68153	 220.0	 3	    1.11000	    0.95000;
	102	 1	 0.0	 0.0	 0.0	 0.0	 1	    1.10365	   -4.48309	 220.0	 3	    1.11000	    0.95000;
	103	 1	 0.0	 0.0	 0.0	 0.0	 1	    1.10358	   -4.49319	 220.0	 3	    1.11000	    0.95000;
	104	 2	 14.0	 40.0	 0.0	 0.0	 1	    1.11000	   -3.37801	 220.0	 3	    1.11000	    0.95000;
	105	 2	 14.0	 40.0	 0.0	 0.0	 1	    1.11000	   -3.37860	 220.0	 3	    1.11000	    0.95000;
	106	 2	 7.0	 18.0	 0.0	 0.0	 1	    1.10764	   -3.56924	 220.0	 3	    1.11000	    0.95000;
	107	 2	 8.0	 15.0	 0.0	 0.0	 1	    1.10761	   -3.56916	 220.0	 3	    1.11000	    0.95000;
	108	 1	 1.044	 0.0	 0.0	 0.0	 1	    1.10335	   -5.15099	 220.0	 3	    1.11000	    0.95000;
	109	 1	 1.259	 0.0	 0.0	 0.0	 1	    1.10339	   -5.15752	 220.0	 3	    1.11000	    0.95000;
	110	 1	 0.0	 0.0	 0.0	 0.0	 1	    1.10355	   -6.39059	 220.0	 3	    1.11000	    0.95000;
	111	 1	 0.0	 0.0	 0.0	 0.0	 1	    1.09501	   -5.16916	 220.0	 3	    1.11000	    0.95000;
	112	 1	 0.0	 0.0	 0.0	 0.0	 1	    1.09503	   -5.16896	 220.0	 3	    1.11000	    0.95000;
	113	 1	 0.0	 0.0	 0.0	 0.0	 1	    1.09952	   -5.04659	 220.0	 3	    1.11000	    0.95000;
	114	 1	 0.0	 0.0	 0.0	 0.0	 1	    1.09959	   -5.03663	 220.0	 3	    1.11000	    0.95000;
	115	 1	 0.0	 0.0	 0.0	 0.0	 1	    1.04390	   -5.95322	 400.0	 3	    1.05000	    0.95000;
	116	 2	 0.0	 0.0	 0.0	 0.0	 1	    1.10774	   -4.38346	 220.0	 3	    1.11000	    0.95000;
	117	 2	 8.0	 15.0	 0.0	 0.0	 1	    1.10777	   -4.37669	 220.0	 3	    1.11000	    0.95000;
	118	 2	 5.5	 10.0	 0.0	 0.0	 1	    1.10792	   -5.71984	 220.0	 3	    1.11000	    0.95000;
	119	 1	 0.0	 0.0	 0.0	 0.0	 1	    1.10788	   -5.73180	 220.0	 3	    1.11000	    0.95000;
	120	 1	 0.0	 0.0	 0.0	 0.0	 1	    1.04866	  -10.36462	 400.0	 3	    1.05000	    0.95000;
	121	 1	 0.0	 0.0	 0.0	 0.0	 1	    1.04870	  -10.35679	 400.0	 3	    1.05000	    0.95000;
	122	 1	 0.0	 0.0	 0.0	 0.0	 1	    1.04999	   -6.14941	 400.0	 3	    1.05000	    0.95000;
	123	 1	 0.0	 0.0	 0.0	 0.0	 1	    1.05000	   -6.14410	 400.0	 3	    1.05000	    0.95000;
	124	 1	 0.0	 0.0	 0.0	 0.0	 1	    1.10388	   -6.50056	 220.0	 3	    1.11000	    0.95000;
	125	 2	 18.343	 21.865	 0.0	 0.0	 1	    1.10829	   -3.95618	 220.0	 3	    1.11000	    0.95000;
	126	 2	 28.469	 34.292	 0.0	 0.0	 1	    1.10825	   -3.95774	 220.0	 3	    1.11000	    0.95000;
	127	 2	 28.0	 66.0	 0.0	 0.0	 1	    1.04261	   -5.12634	 400.0	 3	    1.05000	    0.95000;
	128	 1	 0.0	 0.0	 0.0	 0.0	 1	    1.04263	   -5.12876	 400.0	 3	    1.05000	    0.95000;
	129	 1	 0.0	 0.0	 0.0	 0.0	 1	    1.10035	   -4.47087	 220.0	 3	    1.11000	    0.95000;
	130	 1	 0.0	 0.0	 0.0	 0.0	 1	    1.10038	   -4.46720	 220.0	 3	    1.11000	    0.95000;
	131	 1	 0.0	 0.0	 0.0	 0.0	 1	    1.10265	   -4.15873	 220.0	 3	    1.11000	    0.95000;
	132	 2	 3.0	 18.0	 0.0	 0.0	 1	    1.11000	   -2.69591	 220.0	 3	    1.11000	    0.95000;
	133	 2	 2.0	 6.0	 0.0	 0.0	 1	    1.11000	   -3.06944	 220.0	 3	    1.11000	    0.95000;
	134	 2	 15.447	 12.88	 0.0	 0.0	 1	    1.11000	  -10.77076	 220.0	 4	    1.11000	    0.95000;
	135	 2	 5.255	 -0.357	 0.0	 0.0	 1	    1.10988	  -10.78029	 220.0	 4	    1.11000	    0.95000;
	136	 1	 0.0	 0.0	 0.0	 0.0	 1	    1.08041	  -12.99139	 220.0	 4	    1.11000	    0.95000;
	137	 1	 0.0	 0.0	 0.0	 0.0	 1	    1.08626	  -11.17499	 220.0	 4	    1.11000	    0.95000;
	138	 1	 0.0	 0.0	 0.0	 0.0	 1	    1.02076	   -9.91334	 400.0	 4	    1.05000	    0.95000;
	139	 1	 0.0	 0.0	 0.0	 0.0	 1	    1.02077	   -9.91480	 400.0	 4	    1.05000	    0.95000;
	140	 1	 0.0	 0.0	 0.0	 0.0	 1	    1.09294	  -21.56548	 220.0	 4	    1.11000	    0.95000;
	141	 1	 0.0	 0.0	 0.0	 0.0	 1	    1.09367	  -27.88903	 220.0	 4	    1.11000	    0.95000;
	142	 1	 0.0	 0.0	 0.0	 0.0	 1	    1.09367	  -27.88903	 220.0	 4	    1.11000	    0.95000;
	143	 1	 0.0	 0.0	 0.0	 0.0	 1	    1.09793	  -24.84783	 220.0	 4	    1.11000	    0.95000;
	144	 1	 0.0	 0.0	 0.0	 0.0	 1	    1.09674	  -13.52649	 220.0	 4	    1.11000	    0.95000;
	145	 1	 0.0	 0.0	 0.0	 0.0	 1	    1.09674	  -13.52649	 220.0	 4	    1.11000	    0.95000;
	146	 2	 10.954	 -0.465	 0.0	 0.0	 1	    1.10966	  -13.59198	 220.0	 4	    1.11000	    0.95000;
	147	 2	 10.812	 -0.465	 0.0	 0.0	 1	    1.10964	  -13.60272	 220.0	 4	    1.11000	    0.95000;
	148	 2	 11.5	 6.86	 0.0	 0.0	 1	    1.11000	  -25.71389	 220.0	 4	    1.11000	    0.95000;
	149	 1	 1.634	 3.038	 0.0	 0.0	 1	    1.11000	  -25.70863	 220.0	 4	    1.11000	    0.95000;
	150	 2	 8.087	 -0.38	 0.0	 0.0	 1	    1.03674	  -22.23445	 400.0	 4	    1.05000	    0.95000;
	151	 2	 16.174	 -0.76	 0.0	 0.0	 1	    1.03677	  -22.23021	 400.0	 4	    1.05000	    0.95000;
	152	 1	 0.0	 0.0	 0.0	 0.0	 1	    1.05772	  -21.67792	 220.0	 4	    1.11000	    0.95000;
	153	 1	 0.0	 0.0	 0.0	 0.0	 1	    1.07456	  -20.28767	 220.0	 4	    1.11000	    0.95000;
	154	 1	 0.0	 0.0	 0.0	 0.0	 1	    1.07464	  -20.28136	 220.0	 4	    1.11000	    0.95000;
	155	 2	 30.555	 -3.555	 0.0	 0.0	 1	    1.11000	   -7.01645	 220.0	 4	    1.11000	    0.95000;
	156	 2	 14.679	 -3.566	 0.0	 0.0	 1	    1.11000	   -8.11382	 220.0	 4	    1.11000	    0.95000;
	157	 1	 0.0	 0.0	 0.0	 0.0	 1	    1.11000	   -7.01645	 220.0	 4	    1.11000	    0.95000;
	158	 1	 0.0	 0.0	 0.0	 0.0	 1	    1.03495	   -6.65616	 400.0	 4	    1.05000	    0.95000;
	159	 2	 7.385	 -1.783	 0.0	 0.0	 1	    1.03500	   -6.65073	 400.0	 4	    1.05000	    0.95000;
	160	 1	 0.0	 0.0	 0.0	 0.0	 1	    1.09201	  -28.09963	 220.0	 4	    1.11000	    0.95000;
	161	 1	 0.0	 0.0	 0.0	 0.0	 1	    1.09201	  -28.09963	 220.0	 4	    1.11000	    0.95000;
	162	 1	 0.0	 0.0	 0.0	 0.0	 1	    1.01775	  -10.89199	 400.0	 4	    1.05000	    0.95000;
	163	 1	 0.0	 0.0	 0.0	 0.0	 1	    1.02489	   -9.35185	 400.0	 4	    1.05000	    0.95000;
	164	 1	 0.0	 0.0	 0.0	 0.0	 1	    1.02489	   -9.35396	 400.0	 4	    1.05000	    0.95000;
	165	 2	 4.293	 -8.964	 0.0	 0.0	 1	    1.11000	  -13.68911	 220.0	 4	    1.11000	    0.95000;
	166	 2	 23.077	 7.176	 0.0	 0.0	 1	    1.11000	  -13.70759	 220.0	 4	    1.11000	    0.95000;
	167	 1	 0.0	 0.0	 0.0	 0.0	 1	    1.11000	  -13.68911	 220.0	 4	    1.11000	    0.95000;
	168	 1	 0.0	 0.0	 0.0	 0.0	 1	    1.08085	  -26.41388	 220.0	 4	    1.11000	    0.95000;
	169	 1	 0.0	 0.0	 0.0	 0.0	 1	    1.09283	  -28.00120	 220.0	 4	    1.11000	    0.95000;
	170	 1	 0.0	 0.0	 0.0	 0.0	 1	    1.08637	  -22.50254	 220.0	 4	    1.11000	    0.95000;
	171	 1	 0.0	 0.0	 0.0	 0.0	 1	    1.08628	  -22.49605	 220.0	 4	    1.11000	    0.95000;
	172	 1	 0.0	 0.0	 0.0	 0.0	 1	    1.00572	  -23.53962	 400.0	 4	    1.05000	    0.95000;
	173	 1	 0.0	 0.0	 0.0	 0.0	 1	    1.00572	  -23.53962	 400.0	 4	    1.05000	    0.95000;
	174	 1	 0.0	 0.0	 0.0	 0.0	 1	    1.04761	  -17.91949	 220.0	 4	    1.11000	    0.95000;
	175	 1	 0.0	 0.0	 0.0	 0.0	 1	    1.04762	  -17.91263	 220.0	 4	    1.11000	    0.95000;
	176	 1	 0.0	 0.0	 0.0	 0.0	 1	    1.08476	  -23.03153	 220.0	 4	    1.11000	    0.95000;
	177	 1	 0.0	 0.0	 0.0	 0.0	 1	    1.08672	  -12.50371	 220.0	 4	    1.11000	    0.95000;
	178	 1	 0.0	 0.0	 0.0	 0.0	 1	    1.08676	  -12.49743	 220.0	 4	    1.11000	    0.95000;
	179	 1	 0.0	 0.0	 0.0	 0.0	 1	    1.08996	  -11.97108	 220.0	 4	    1.11000	    0.95000;
	180	 1	 0.0	 0.0	 0.0	 0.0	 1	    1.08996	  -11.97108	 220.0	 4	    1.11000	    0.95000;
	181	 1	 0.0	 0.0	 0.0	 0.0	 1	    1.04490	  -19.44565	 220.0	 4	    1.11000	    0.95000;
	182	 1	 0.0	 0.0	 0.0	 0.0	 1	    1.04745	  -21.83752	 220.0	 5	    1.11000	    0.95000;
	183	 1	 0.0	 0.0	 0.0	 0.0	 1	    1.11000	  -23.44985	 220.0	 5	    1.11000	    0.95000;
	184	 1	 0.0	 0.0	 0.0	 0.0	 1	    1.03628	  -21.71405	 400.0	 5	    1.05000	    0.95000;
	185	 1	 0.0	 0.0	 0.0	 0.0	 1	    1.03631	  -21.71854	 400.0	 5	    1.05000	    0.95000;
	186	 1	 0.0	 0.0	 0.0	 0.0	 1	    1.01811	  -21.23965	 400.0	 5	    1.05000	    0.95000;
	187	 1	 0.0	 0.0	 0.0	 0.0	 1	    1.01813	  -21.24371	 400.0	 5	    1.05000	    0.95000;
	188	 1	 0.0	 0.0	 0.0	 0.0	 1	    1.02171	  -25.07844	 220.0	 5	    1.11000	    0.95000;
	189	 1	 0.0	 0.0	 0.0	 0.0	 1	    1.02179	  -25.07989	 220.0	 5	    1.11000	    0.95000;
	190	 1	 0.0	 0.0	 0.0	 0.0	 1	    1.07165	  -22.65404	 220.0	 5	    1.11000	    0.95000;
	191	 1	 0.0	 0.0	 0.0	 0.0	 1	    1.07153	  -22.65556	 220.0	 5	    1.11000	    0.95000;
	192	 1	 0.0	 0.0	 0.0	 0.0	 1	    0.99112	  -19.93059	 400.0	 5	    1.05000	    0.95000;
	193	 1	 0.0	 0.0	 0.0	 0.0	 1	    1.05680	  -21.01816	 220.0	 5	    1.11000	    0.95000;
	194	 1	 0.0	 0.0	 0.0	 0.0	 1	    1.05688	  -21.01430	 220.0	 5	    1.11000	    0.95000;
	195	 1	 0.0	 0.0	 0.0	 0.0	 1	    1.00745	  -23.22252	 400.0	 5	    1.05000	    0.95000;
	196	 1	 0.0	 0.0	 0.0	 0.0	 1	    1.00741	  -23.22749	 400.0	 5	    1.05000	    0.95000;
	197	 1	 0.0	 0.0	 0.0	 0.0	 1	    1.06279	  -25.76404	 220.0	 5	    1.11000	    0.95000;
	198	 1	 0.0	 0.0	 0.0	 0.0	 1	    1.06283	  -25.75732	 220.0	 5	    1.11000	    0.95000;
	199	 1	 0.0	 0.0	 0.0	 0.0	 1	    1.03823	  -19.78990	 400.0	 5	    1.05000	    0.95000;
	200	 1	 0.0	 0.0	 0.0	 0.0	 1	    1.03825	  -19.78441	 400.0	 5	    1.05000	    0.95000;
	201	 1	 0.0	 0.0	 0.0	 0.0	 1	    1.04872	  -23.75331	 220.0	 5	    1.11000	    0.95000;
	202	 1	 0.0	 0.0	 0.0	 0.0	 1	    1.04868	  -23.75142	 220.0	 5	    1.11000	    0.95000;
	203	 1	 0.0	 0.0	 0.0	 0.0	 1	    1.05026	  -21.91986	 220.0	 5	    1.11000	    0.95000;
	204	 1	 0.0	 0.0	 0.0	 0.0	 1	    1.05018	  -21.93394	 220.0	 5	    1.11000	    0.95000;
	205	 2	 0.0	 0.0	 0.0	 0.0	 1	    1.02492	  -19.80347	 400.0	 5	    1.05000	    0.95000;
	206	 2	 0.0	 0.0	 0.0	 0.0	 1	    1.02491	  -19.80310	 400.0	 5	    1.05000	    0.95000;
	207	 1	 0.0	 0.0	 0.0	 0.0	 1	    1.07985	  -25.38831	 220.0	 5	    1.11000	    0.95000;
	208	 1	 0.0	 0.0	 0.0	 0.0	 1	    1.07988	  -25.38232	 220.0	 5	    1.11000	    0.95000;
	209	 1	 8.101	 1.5	 0.0	 0.0	 1	    1.08174	  -23.55253	 110.0	 1	    1.12000	    0.95000;
	210	 1	 8.101	 1.0	 0.0	 0.0	 1	    1.07635	  -32.24886	 110.0	 1	    1.12000	    0.95000;
	211	 1	 9.114	 2.0	 0.0	 0.0	 1	    1.08457	  -20.96734	 110.0	 1	    1.12000	    0.95000;
	212	 1	 8.911	 7.8	 0.0	 0.0	 1	    1.01585	  -25.97729	 110.0	 1	    1.12000	    0.95000;
	213	 1	 4.05	 1.0	 0.0	 0.0	 1	    1.07384	   -1.99313	 110.0	 1	    1.12000	    0.95000;
	214	 1	 9.619	 2.5	 0.0	 0.0	 1	    1.09090	   -3.80649	 110.0	 1	    1.12000	    0.95000;
	215	 2	 51.981	 24.3	 0.0	 0.0	 1	    1.10811	  -22.05108	 110.0	 1	    1.12000	    0.95000;
	216	 1	 22.276	 2.5	 0.0	 0.0	 1	    1.10964	  -21.99850	 110.0	 1	    1.12000	    0.95000;
	217	 1	 10.126	 2.0	 0.0	 0.0	 1	    1.10902	  -22.03693	 110.0	 1	    1.12000	    0.95000;
	218	 1	 11.138	 2.0	 0.0	 0.0	 1	    1.10809	  -22.26067	 110.0	 1	    1.12000	    0.95000;
	219	 2	 13.163	 2.5	 0.0	 0.0	 1	    1.07677	  -24.04709	 110.0	 1	    1.12000	    0.95000;
	220	 1	 9.114	 2.25	 0.0	 0.0	 1	    1.06711	  -23.05778	 110.0	 1	    1.12000	    0.95000;
	221	 2	 0.0	 0.0	 0.0	 0.0	 1	    1.09416	  -17.70279	 110.0	 1	    1.12000	    0.95000;
	222	 2	 11.138	 2.4	 0.0	 0.0	 1	    1.07487	  -10.68581	 110.0	 1	    1.12000	    0.95000;
	223	 2	 17.214	 3.1	 0.0	 0.0	 1	    1.08655	  -22.93142	 110.0	 1	    1.12000	    0.95000;
	224	 1	 1.519	 0.4	 0.0	 0.0	 1	    1.05437	   -4.64750	 110.0	 1	    1.12000	    0.95000;
	225	 1	 5.265	 0.8	 0.0	 0.0	 1	    1.10393	  -23.15542	 110.0	 1	    1.12000	    0.95000;
	226	 1	 5.569	 0.5	 0.0	 0.0	 1	    1.09723	  -27.68512	 110.0	 1	    1.12000	    0.95000;
	227	 1	 19.239	 2.0	 0.0	 0.0	 1	    1.09751	  -22.89397	 110.0	 1	    1.12000	    0.95000;
	228	 1	 11.138	 2.0	 0.0	 0.0	 1	    1.08721	  -23.32905	 110.0	 1	    1.12000	    0.95000;
	229	 2	 2.633	 1.03	 0.0	 0.0	 1	    1.09874	  -10.77447	 110.0	 1	    1.12000	    0.95000;
	230	 2	 2.633	 1.03	 0.0	 0.0	 1	    1.09892	  -10.76974	 110.0	 1	    1.12000	    0.95000;
	231	 1	 16.201	 6.0	 0.0	 0.0	 1	    1.07502	  -23.49147	 110.0	 1	    1.12000	    0.95000;
	232	 1	 10.126	 1.1	 0.0	 0.0	 1	    1.09258	   -3.63864	 110.0	 1	    1.12000	    0.95000;
	233	 1	 9.619	 1.5	 0.0	 0.0	 1	    1.06973	  -12.92663	 110.0	 1	    1.12000	    0.95000;
	234	 1	 22.277	 17.0	 0.0	 0.0	 1	    1.07566	   -1.95165	 110.0	 1	    1.12000	    0.95000;
	235	 1	 8.607	 0.6	 0.0	 0.0	 1	    1.08619	  -26.05114	 110.0	 1	    1.12000	    0.95000;
	236	 1	 13.568	 4.41	 0.0	 0.0	 1	    1.10225	   -9.93803	 110.0	 1	    1.12000	    0.95000;
	237	 1	 7.695	 0.8	 0.0	 0.0	 1	    1.08493	  -26.20436	 110.0	 1	    1.12000	    0.95000;
	238	 1	 10.126	 1.5	 0.0	 0.0	 1	    1.08803	  -25.13496	 110.0	 1	    1.12000	    0.95000;
	239	 2	 4.493	 1.175	 0.0	 0.0	 1	    1.06651	  -24.81430	 110.0	 1	    1.12000	    0.95000;
	240	 1	 13.872	 0.6	 0.0	 0.0	 1	    1.08815	  -27.42579	 110.0	 1	    1.12000	    0.95000;
	241	 1	 7.594	 2.19	 0.0	 0.0	 1	    1.10100	  -10.40343	 110.0	 1	    1.12000	    0.95000;
	242	 1	 10.632	 0.4	 0.0	 0.0	 1	    1.11733	   -5.59023	 110.0	 1	    1.12000	    0.95000;
	243	 1	 0.0	 0.0	 0.0	 0.0	 1	    1.11745	   -5.56682	 110.0	 1	    1.12000	    0.95000;
	244	 1	 3.038	 1.4	 0.0	 0.0	 1	    1.11323	  -22.44562	 110.0	 1	    1.12000	    0.95000;
	245	 1	 0.0	 0.0	 0.0	 0.0	 1	    1.08116	    0.07860	 110.0	 1	    1.12000	    0.95000;
	246	 2	 1.982	 5.0	 0.0	 0.0	 1	    1.07668	    3.83906	 22.0	 1	    1.12000	    0.95000;
	247	 1	 11.138	 1.5	 0.0	 0.0	 1	    1.08842	  -29.41561	 110.0	 1	    1.12000	    0.95000;
	248	 1	 3.038	 0.5	 0.0	 0.0	 1	    1.10596	  -29.47883	 110.0	 1	    1.12000	    0.95000;
	249	 1	 3.038	 0.5	 0.0	 0.0	 1	    1.09998	  -28.17475	 110.0	 1	    1.12000	    0.95000;
	250	 1	 4.05	 0.5	 0.0	 0.0	 1	    1.04953	  -34.59223	 110.0	 1	    1.12000	    0.95000;
	251	 1	 4.86	 0.3	 0.0	 0.0	 1	    1.10293	  -21.89383	 110.0	 1	    1.12000	    0.95000;
	252	 1	 19.239	 7.0	 0.0	 0.0	 1	    1.08785	  -17.36591	 110.0	 1	    1.12000	    0.95000;
	253	 1	 22.276	 4.0	 0.0	 0.0	 1	    1.07647	  -23.59620	 110.0	 1	    1.12000	    0.95000;
	254	 1	 16.201	 2.0	 0.0	 0.0	 1	    1.08593	  -31.48654	 110.0	 1	    1.12000	    0.95000;
	255	 1	 24.302	 1.5	 0.0	 0.0	 1	    1.09368	  -27.68733	 110.0	 1	    1.12000	    0.95000;
	256	 1	 5.569	 1.0	 0.0	 0.0	 1	    1.09505	  -27.82241	 110.0	 1	    1.12000	    0.95000;
	257	 1	 4.303	 0.6	 0.0	 0.0	 1	    1.07334	   -1.95082	 110.0	 1	    1.12000	    0.95000;
	258	 1	 4.303	 0.6	 0.0	 0.0	 1	    1.07327	   -1.96753	 110.0	 1	    1.12000	    0.95000;
	259	 1	 11.24	 3.24	 0.0	 0.0	 1	    1.08754	  -11.75357	 110.0	 1	    1.12000	    0.95000;
	260	 1	 7.088	 1.0	 0.0	 0.0	 1	    1.04619	  -35.19509	 110.0	 1	    1.12000	    0.95000;
	261	 1	 2.633	 1.2	 0.0	 0.0	 1	    1.09549	  -21.24563	 110.0	 1	    1.12000	    0.95000;
	262	 1	 11.341	 1.8	 0.0	 0.0	 1	    1.08059	  -20.96943	 110.0	 1	    1.12000	    0.95000;
	263	 1	 2.329	 1.1	 0.0	 0.0	 1	    1.08382	  -26.91711	 110.0	 1	    1.12000	    0.95000;
	264	 1	 40.503	 34.0	 0.0	 0.0	 1	    1.08113	   -0.51226	 110.0	 1	    1.12000	    0.95000;
	265	 1	 38.479	 33.0	 0.0	 0.0	 1	    1.08802	   -3.12846	 110.0	 1	    1.12000	    0.95000;
	266	 1	 6.075	 1.0	 0.0	 0.0	 1	    1.07754	  -23.06642	 110.0	 1	    1.12000	    0.95000;
	267	 1	 13.67	 0.7	 0.0	 0.0	 1	    1.08396	  -23.84468	 110.0	 1	    1.12000	    0.95000;
	268	 1	 9.923	 1.8	 0.0	 0.0	 1	    1.10699	  -21.37759	 110.0	 1	    1.12000	    0.95000;
	269	 1	 13.163	 1.5	 0.0	 0.0	 1	    1.09574	  -23.22499	 110.0	 1	    1.12000	    0.95000;
	270	 1	 10.125	 1.5	 0.0	 0.0	 1	    1.05250	  -33.99699	 110.0	 1	    1.12000	    0.95000;
	271	 1	 18.227	 4.5	 0.0	 0.0	 1	    1.06769	  -22.20723	 110.0	 1	    1.12000	    0.95000;
	272	 1	 0.304	 0.1	 0.0	 0.0	 1	    1.07512	  -23.71149	 110.0	 1	    1.12000	    0.95000;
	273	 1	 0.506	 0.15	 0.0	 0.0	 1	    1.09985	  -21.02720	 110.0	 1	    1.12000	    0.95000;
	274	 1	 0.202	 0.06	 0.0	 0.0	 1	    1.09020	  -21.45016	 110.0	 1	    1.12000	    0.95000;
	275	 1	 12.88	 5.8	 0.0	 0.0	 1	    1.10316	   -9.44793	 110.0	 1	    1.12000	    0.95000;
	276	 1	 8.587	 3.87	 0.0	 0.0	 1	    1.10535	   -9.77779	 110.0	 1	    1.12000	    0.95000;
	277	 1	 9.619	 1.2	 0.0	 0.0	 1	    1.08076	  -10.23240	 110.0	 1	    1.12000	    0.95000;
	278	 1	 3.038	 0.5	 0.0	 0.0	 1	    1.10454	  -23.18523	 110.0	 1	    1.12000	    0.95000;
	279	 1	 8.101	 0.0	 0.0	 0.0	 1	    1.09923	  -24.52642	 110.0	 1	    1.12000	    0.95000;
	280	 1	 15.188	 2.0	 0.0	 0.0	 1	    1.09712	  -21.17500	 110.0	 1	    1.12000	    0.95000;
	281	 1	 9.62	 2.0	 0.0	 0.0	 1	    1.07324	  -22.38902	 110.0	 1	    1.12000	    0.95000;
	282	 1	 17.213	 13.999	 0.0	 0.0	 1	    1.07888	   -2.83337	 110.0	 1	    1.12000	    0.95000;
	283	 1	 16.202	 13.0	 0.0	 0.0	 1	    1.07866	   -2.81635	 110.0	 1	    1.12000	    0.95000;
	284	 1	 13.771	 4.47	 0.0	 0.0	 1	    1.10278	   -9.25166	 110.0	 1	    1.12000	    0.95000;
	285	 1	 15.189	 4.0	 0.0	 0.0	 1	    1.09437	  -10.50246	 110.0	 1	    1.12000	    0.95000;
	286	 1	 10.126	 1.0	 0.0	 0.0	 1	    1.09555	  -26.98277	 110.0	 1	    1.12000	    0.95000;
	287	 1	 5.063	 0.0	 0.0	 0.0	 1	    1.10187	  -24.36122	 110.0	 1	    1.12000	    0.95000;
	288	 1	 3.037	 2.5	 0.0	 0.0	 1	    1.06587	  -24.08468	 110.0	 1	    1.12000	    0.95000;
	289	 1	 4.05	 0.501	 0.0	 0.0	 1	    1.09012	  -12.89979	 110.0	 1	    1.12000	    0.95000;
	290	 1	 21.77	 6.7	 0.0	 0.0	 1	    1.07455	  -22.25776	 110.0	 1	    1.12000	    0.95000;
	291	 2	 15.999	 1.6	 0.0	 0.0	 1	    1.09645	  -21.31521	 110.0	 1	    1.12000	    0.95000;
	292	 1	 8.202	 2.37	 0.0	 0.0	 1	    1.10485	   -8.91798	 110.0	 1	    1.12000	    0.95000;
	293	 1	 5.366	 1.0	 0.0	 0.0	 1	    1.08503	  -21.92102	 110.0	 1	    1.12000	    0.95000;
	294	 2	 7.493	 0.3	 0.0	 0.0	 1	    1.08127	  -24.37630	 110.0	 1	    1.12000	    0.95000;
	295	 1	 13.163	 0.4	 0.0	 0.0	 1	    1.08971	  -12.83230	 110.0	 1	    1.12000	    0.95000;
	296	 1	 6.582	 1.5	 0.0	 0.0	 1	    1.09515	   -9.13606	 110.0	 1	    1.12000	    0.95000;
	297	 1	 10.328	 3.36	 0.0	 0.0	 1	    1.09448	  -10.96523	 110.0	 1	    1.12000	    0.95000;
	298	 1	 14.885	 4.7	 0.0	 0.0	 1	    1.09740	  -10.87169	 110.0	 1	    1.12000	    0.95000;
	299	 2	 15.188	 4.0	 0.0	 0.0	 1	    1.10458	  -22.84756	 110.0	 1	    1.12000	    0.95000;
	300	 1	 0.0	 0.0	 0.0	 0.0	 1	    1.10562	   -9.78194	 110.0	 1	    1.12000	    0.95000;
	301	 1	 5.569	 1.2	 0.0	 0.0	 1	    1.04583	   -5.59074	 110.0	 1	    1.12000	    0.95000;
	302	 1	 10.835	 3.52	 0.0	 0.0	 1	    1.10494	   -8.90702	 110.0	 1	    1.12000	    0.95000;
	303	 1	 13.062	 3.77	 0.0	 0.0	 1	    1.10091	  -10.38920	 110.0	 1	    1.12000	    0.95000;
	304	 1	 25.719	 7.42	 0.0	 0.0	 1	    1.10280	   -9.41488	 110.0	 1	    1.12000	    0.95000;
	305	 1	 25.72	 7.42	 0.0	 0.0	 1	    1.09494	  -11.00988	 110.0	 1	    1.12000	    0.95000;
	306	 2	 97.275	 54.72	 0.0	 0.0	 1	    1.09011	  -10.85063	 110.0	 1	    1.12000	    0.95000;
	307	 2	 62.22	 22.54	 0.0	 0.0	 1	    1.09693	  -10.89951	 110.0	 1	    1.12000	    0.95000;
	308	 2	 35.918	 13.2	 0.0	 0.0	 1	    1.10304	  -10.45126	 110.0	 1	    1.12000	    0.95000;
	309	 1	 0.0	 0.0	 0.0	 0.0	 1	    1.09465	  -10.98165	 110.0	 1	    1.12000	    0.95000;
	310	 2	 39.452	 17.47	 0.0	 0.0	 1	    1.10475	   -9.35887	 110.0	 1	    1.12000	    0.95000;
	311	 2	 30.853	 15.45	 0.0	 0.0	 1	    1.10495	   -9.97004	 110.0	 1	    1.12000	    0.95000;
	312	 1	 15.492	 0.8	 0.0	 0.0	 1	    1.09372	  -11.88024	 110.0	 1	    1.12000	    0.95000;
	313	 1	 2.531	 0.5	 0.0	 0.0	 1	    1.09976	  -23.05181	 110.0	 1	    1.12000	    0.95000;