%%%%%%%%%%%%%%%%%%%%%%%%%%%%%%%%%%%%%%%%%%%%%%%%%%%%%%%%%%%%%%%%%%%%%%%%%%%
%%%%                                                                  %%%%%
%%%%    IEEE PES Power Grid Library - Optimal Power Flow - v19.05     %%%%%
%%%%          (https://github.com/power-grid-lib/pglib-opf)           %%%%%
%%%%             Benchmark Group - Active Power Increase              %%%%%
%%%%                         10 - May - 2019                          %%%%%
%%%%                                                                  %%%%%
%%%%%%%%%%%%%%%%%%%%%%%%%%%%%%%%%%%%%%%%%%%%%%%%%%%%%%%%%%%%%%%%%%%%%%%%%%%
function mpc = pglib_opf_case2000_tamu__api
mpc.version = '2';
mpc.baseMVA = 100.0;

%% bus data
%	bus_i	type	Pd	Qd	Gs	Bs	area	Vm	Va	baseKV	zone	Vmax	Vmin
mpc.bus = [
	1001	 1	 24.38	 5.89	 0.0	 0.0	 1	    1.00000	    0.00000	 115.0	 9	    1.10000	    0.90000;
	1002	 1	 18.08	 4.37	 0.0	 0.0	 1	    1.00000	    0.00000	 115.0	 9	    1.10000	    0.90000;
	1003	 1	 0.0	 0.0	 0.0	 0.0	 1	    1.00000	    0.00000	 115.0	 9	    1.10000	    0.90000;
	1004	 2	 0.0	 0.0	 0.0	 0.0	 1	    1.00000	    0.00000	 230.0	 9	    1.10000	    0.90000;
	1005	 1	 0.0	 0.0	 0.0	 0.0	 1	    1.00000	    0.00000	 115.0	 9	    1.10000	    0.90000;
	1006	 2	 0.0	 0.0	 0.0	 0.0	 1	    1.00000	    0.00000	 13.8	 9	    1.10000	    0.90000;
	1007	 1	 8.22	 1.99	 0.0	 -0.82	 1	    1.00000	    0.00000	 115.0	 9	    1.10000	    0.90000;
	1008	 1	 0.0	 0.0	 0.0	 0.0	 1	    1.00000	    0.00000	 115.0	 9	    1.10000	    0.90000;
	1009	 2	 0.0	 0.0	 0.0	 0.0	 1	    1.00000	    0.00000	 13.8	 9	    1.10000	    0.90000;
	1010	 1	 0.0	 0.0	 0.0	 -3.07	 1	    1.00000	    0.00000	 115.0	 9	    1.10000	    0.90000;
	1011	 2	 0.0	 0.0	 0.0	 0.0	 1	    1.00000	    0.00000	 22.0	 9	    1.10000	    0.90000;
	1012	 1	 3.51	 0.85	 0.0	 9.5	 1	    1.00000	    0.00000	 115.0	 9	    1.10000	    0.90000;
	1013	 1	 34.29	 8.28	 0.0	 0.0	 1	    1.00000	    0.00000	 115.0	 9	    1.10000	    0.90000;
	1014	 1	 2.60	 0.63	 0.0	 0.0	 1	    1.00000	    0.00000	 115.0	 9	    1.10000	    0.90000;
	1015	 1	 8.81	 2.13	 0.0	 0.0	 1	    1.00000	    0.00000	 115.0	 9	    1.10000	    0.90000;
	1016	 1	 3.39	 0.82	 0.0	 30.0	 1	    1.00000	    0.00000	 115.0	 9	    1.10000	    0.90000;
	1017	 1	 21.52	 5.20	 0.0	 0.0	 1	    1.00000	    0.00000	 115.0	 9	    1.10000	    0.90000;
	1018	 1	 0.08	 0.02	 0.0	 0.0	 1	    1.00000	    0.00000	 115.0	 9	    1.10000	    0.90000;
	1019	 1	 72.48	 17.50	 0.0	 142.98	 1	    1.00000	    0.00000	 115.0	 9	    1.10000	    0.90000;
	1020	 1	 0.0	 0.0	 0.0	 67.23	 1	    1.00000	    0.00000	 115.0	 9	    1.10000	    0.90000;
	1021	 2	 0.0	 0.0	 0.0	 0.0	 1	    1.00000	    0.00000	 13.8	 9	    1.10000	    0.90000;
	1022	 1	 0.0	 0.0	 0.0	 0.0	 1	    1.00000	    0.00000	 115.0	 9	    1.10000	    0.90000;
	1023	 2	 0.0	 0.0	 0.0	 0.0	 1	    1.00000	    0.00000	 13.8	 9	    1.10000	    0.90000;
	1024	 1	 73.96	 17.86	 0.0	 0.0	 1	    1.00000	    0.00000	 115.0	 9	    1.10000	    0.90000;
	1025	 1	 0.0	 0.0	 0.0	 0.0	 1	    1.00000	    0.00000	 115.0	 9	    1.10000	    0.90000;
	1026	 2	 0.0	 0.0	 0.0	 0.0	 1	    1.00000	    0.00000	 13.8	 9	    1.10000	    0.90000;
	1027	 1	 118.74	 28.68	 0.0	 75.0	 1	    1.00000	    0.00000	 115.0	 9	    1.10000	    0.90000;
	1028	 1	 11.74	 2.84	 0.0	 0.0	 1	    1.00000	    0.00000	 115.0	 9	    1.10000	    0.90000;
	1029	 1	 97.59	 23.57	 0.0	 40.0	 1	    1.00000	    0.00000	 115.0	 9	    1.10000	    0.90000;
	1030	 1	 28.90	 6.98	 0.0	 0.0	 1	    1.00000	    0.00000	 115.0	 9	    1.10000	    0.90000;
	1031	 1	 10.85	 2.62	 0.0	 0.0	 1	    1.00000	    0.00000	 115.0	 9	    1.10000	    0.90000;
	1032	 1	 0.0	 0.0	 0.0	 0.0	 1	    1.00000	    0.00000	 115.0	 9	    1.10000	    0.90000;
	1033	 2	 0.0	 0.0	 0.0	 50.0	 1	    1.00000	    0.00000	 230.0	 9	    1.10000	    0.90000;
	1034	 1	 0.0	 0.0	 0.0	 0.0	 1	    1.00000	    0.00000	 115.0	 9	    1.10000	    0.90000;
	1035	 2	 0.0	 0.0	 0.0	 0.0	 1	    1.00000	    0.00000	 13.8	 9	    1.10000	    0.90000;
	1036	 1	 15.96	 3.85	 0.0	 0.0	 1	    1.00000	    0.00000	 115.0	 9	    1.10000	    0.90000;
	1037	 1	 119.95	 28.97	 0.0	 0.0	 1	    1.00000	    0.00000	 115.0	 9	    1.10000	    0.90000;
	1038	 1	 0.0	 0.0	 0.0	 0.0	 1	    1.00000	    0.00000	 115.0	 9	    1.10000	    0.90000;
	1039	 2	 0.0	 0.0	 0.0	 0.0	 1	    1.00000	    0.00000	 22.0	 9	    1.10000	    0.90000;
	1040	 1	 52.04	 12.57	 0.0	 0.0	 1	    1.00000	    0.00000	 115.0	 9	    1.10000	    0.90000;
	1041	 1	 0.0	 0.0	 0.0	 0.0	 1	    1.00000	    0.00000	 115.0	 9	    1.10000	    0.90000;
	1042	 2	 0.0	 0.0	 0.0	 0.0	 1	    1.00000	    0.00000	 13.8	 9	    1.10000	    0.90000;
	1043	 2	 0.0	 0.0	 0.0	 0.0	 1	    1.00000	    0.00000	 13.8	 9	    1.10000	    0.90000;
	1044	 1	 17.22	 4.16	 0.0	 0.0	 1	    1.00000	    0.00000	 115.0	 9	    1.10000	    0.90000;
	1045	 1	 115.63	 27.93	 0.0	 0.0	 1	    1.00000	    0.00000	 115.0	 9	    1.10000	    0.90000;
	1046	 1	 13.00	 3.14	 0.0	 12.0	 1	    1.00000	    0.00000	 115.0	 9	    1.10000	    0.90000;
	1047	 1	 0.0	 0.0	 0.0	 0.0	 1	    1.00000	    0.00000	 115.0	 9	    1.10000	    0.90000;
	1048	 2	 0.0	 0.0	 0.0	 0.0	 1	    1.00000	    0.00000	 18.0	 9	    1.10000	    0.90000;
	1049	 2	 0.0	 0.0	 0.0	 0.0	 1	    1.00000	    0.00000	 18.0	 9	    1.10000	    0.90000;
	1050	 2	 0.0	 0.0	 0.0	 0.0	 1	    1.00000	    0.00000	 18.0	 9	    1.10000	    0.90000;
	1051	 2	 0.0	 0.0	 0.0	 0.0	 1	    1.00000	    0.00000	 18.0	 9	    1.10000	    0.90000;
	1052	 2	 0.0	 0.0	 0.0	 0.0	 1	    1.00000	    0.00000	 18.0	 9	    1.10000	    0.90000;
	1053	 2	 0.0	 0.0	 0.0	 0.0	 1	    1.00000	    0.00000	 230.0	 9	    1.10000	    0.90000;
	1054	 1	 17.59	 4.25	 0.0	 0.0	 1	    1.00000	    0.00000	 115.0	 9	    1.10000	    0.90000;
	1055	 1	 4.67	 1.13	 0.0	 0.0	 1	    1.00000	    0.00000	 115.0	 9	    1.10000	    0.90000;
	1056	 1	 0.0	 0.0	 0.0	 59.97	 1	    1.00000	    0.00000	 115.0	 9	    1.10000	    0.90000;
	1057	 2	 0.0	 0.0	 0.0	 0.0	 1	    1.00000	    0.00000	 18.0	 9	    1.10000	    0.90000;
	1058	 1	 15.79	 3.81	 0.0	 0.0	 1	    1.00000	    0.00000	 115.0	 9	    1.10000	    0.90000;
	1059	 2	 0.0	 0.0	 0.0	 0.0	 1	    1.00000	    0.00000	 22.0	 9	    1.10000	    0.90000;
	1060	 2	 0.0	 0.0	 0.0	 0.0	 1	    1.00000	    0.00000	 22.0	 9	    1.10000	    0.90000;
	1061	 1	 0.0	 0.0	 0.0	 0.0	 1	    1.00000	    0.00000	 115.0	 9	    1.10000	    0.90000;
	1062	 2	 0.0	 0.0	 0.0	 0.0	 1	    1.00000	    0.00000	 13.8	 9	    1.10000	    0.90000;
	1063	 2	 0.0	 0.0	 0.0	 0.0	 1	    1.00000	    0.00000	 13.8	 9	    1.10000	    0.90000;
	1064	 1	 145.19	 35.07	 0.0	 0.0	 1	    1.00000	    0.00000	 115.0	 9	    1.10000	    0.90000;
	1065	 1	 0.0	 0.0	 0.0	 0.0	 1	    1.00000	    0.00000	 115.0	 9	    1.10000	    0.90000;
	1066	 2	 0.0	 0.0	 0.0	 0.0	 1	    1.00000	    0.00000	 13.8	 9	    1.10000	    0.90000;
	1067	 1	 119.14	 28.77	 0.0	 0.0	 1	    1.00000	    0.00000	 115.0	 9	    1.10000	    0.90000;
	1068	 1	 69.69	 16.83	 0.0	 0.0	 1	    1.00000	    0.00000	 115.0	 9	    1.10000	    0.90000;
	1069	 1	 0.0	 0.0	 0.0	 0.0	 1	    1.00000	    0.00000	 115.0	 9	    1.10000	    0.90000;
	1070	 2	 0.0	 0.0	 0.0	 0.0	 1	    1.00000	    0.00000	 13.8	 9	    1.10000	    0.90000;
	1071	 1	 107.30	 25.91	 0.0	 0.0	 1	    1.00000	    0.00000	 115.0	 9	    1.10000	    0.90000;
	1072	 2	 0.0	 0.0	 0.0	 0.0	 1	    1.00000	    0.00000	 18.0	 9	    1.10000	    0.90000;
	1073	 2	 0.0	 0.0	 0.0	 0.0	 1	    1.00000	    0.00000	 18.0	 9	    1.10000	    0.90000;
	1074	 2	 0.0	 0.0	 0.0	 0.0	 1	    1.00000	    0.00000	 18.0	 9	    1.10000	    0.90000;
	1075	 2	 0.0	 0.0	 0.0	 0.0	 1	    1.00000	    0.00000	 18.0	 9	    1.10000	    0.90000;
	1076	 2	 0.0	 0.0	 0.0	 0.0	 1	    1.00000	    0.00000	 18.0	 9	    1.10000	    0.90000;
	1077	 2	 0.0	 0.0	 0.0	 0.0	 1	    1.00000	    0.00000	 18.0	 9	    1.10000	    0.90000;
	1078	 2	 0.0	 0.0	 0.0	 0.0	 1	    1.00000	    0.00000	 18.0	 9	    1.10000	    0.90000;
	1079	 2	 0.0	 0.0	 0.0	 0.0	 1	    1.00000	    0.00000	 500.0	 9	    1.10000	    0.90000;
	1080	 2	 0.0	 0.0	 0.0	 0.0	 1	    1.00000	    0.00000	 18.0	 9	    1.10000	    0.90000;
	1081	 2	 0.0	 0.0	 0.0	 56.9	 1	    1.00000	    0.00000	 230.0	 9	    1.10000	    0.90000;
	1082	 2	 0.0	 0.0	 0.0	 0.0	 1	    1.00000	    0.00000	 115.0	 9	    1.10000	    0.90000;
	1083	 1	 46.87	 11.32	 0.0	 26.15	 1	    1.00000	    0.00000	 115.0	 9	    1.10000	    0.90000;
	1084	 2	 0.0	 0.0	 0.0	 0.0	 1	    1.00000	    0.00000	 115.0	 9	    1.10000	    0.90000;
	1085	 1	 24.99	 6.03	 0.0	 0.0	 1	    1.00000	    0.00000	 115.0	 9	    1.10000	    0.90000;
	1086	 1	 46.54	 11.24	 0.0	 30.0	 1	    1.00000	    0.00000	 115.0	 9	    1.10000	    0.90000;
	1087	 1	 1.07	 0.26	 0.0	 8.66	 1	    1.00000	    0.00000	 115.0	 9	    1.10000	    0.90000;
	1088	 2	 0.0	 0.0	 0.0	 0.0	 1	    1.00000	    0.00000	 115.0	 9	    1.10000	    0.90000;
	1089	 1	 47.63	 11.50	 0.0	 0.0	 1	    1.00000	    0.00000	 115.0	 9	    1.10000	    0.90000;
	1090	 2	 0.0	 0.0	 0.0	 0.0	 1	    1.00000	    0.00000	 115.0	 9	    1.10000	    0.90000;
	1091	 1	 13.63	 3.29	 0.0	 0.0	 1	    1.00000	    0.00000	 161.0	 9	    1.10000	    0.90000;
	2001	 1	 56.74	 13.70	 0.0	 0.0	 2	    1.00000	    0.00000	 161.0	 11	    1.10000	    0.90000;
	2002	 1	 0.0	 0.0	 0.0	 0.0	 2	    1.00000	    0.00000	 500.0	 11	    1.10000	    0.90000;
	2003	 1	 0.0	 0.0	 0.0	 0.0	 2	    1.00000	    0.00000	 161.0	 11	    1.10000	    0.90000;
	2004	 2	 0.0	 0.0	 0.0	 0.0	 2	    1.00000	    0.00000	 13.8	 11	    1.10000	    0.90000;
	2005	 2	 0.0	 0.0	 0.0	 0.0	 2	    1.00000	    0.00000	 13.8	 11	    1.10000	    0.90000;
	2006	 2	 0.0	 0.0	 0.0	 0.0	 2	    1.00000	    0.00000	 13.8	 11	    1.10000	    0.90000;
	2007	 1	 11.19	 2.70	 0.0	 0.0	 2	    1.00000	    0.00000	 161.0	 11	    1.10000	    0.90000;
	2008	 1	 9.46	 2.28	 0.0	 0.0	 2	    1.00000	    0.00000	 161.0	 10	    1.10000	    0.90000;
	2009	 1	 45.92	 11.09	 0.0	 113.65	 2	    1.00000	    0.00000	 161.0	 11	    1.10000	    0.90000;
	2010	 1	 66.65	 16.09	 0.0	 22.39	 2	    1.00000	    0.00000	 161.0	 10	    1.10000	    0.90000;
	2011	 1	 0.0	 0.0	 0.0	 0.0	 2	    1.00000	    0.00000	 500.0	 10	    1.10000	    0.90000;
	2012	 1	 0.0	 0.0	 0.0	 0.0	 2	    1.00000	    0.00000	 161.0	 10	    1.10000	    0.90000;
	2013	 2	 0.0	 0.0	 0.0	 0.0	 2	    1.00000	    0.00000	 18.0	 10	    1.10000	    0.90000;
	2014	 1	 29.83	 7.20	 0.0	 0.0	 2	    1.00000	    0.00000	 161.0	 10	    1.10000	    0.90000;
	2015	 1	 5.50	 1.33	 0.0	 0.0	 2	    1.00000	    0.00000	 161.0	 11	    1.10000	    0.90000;
	2016	 1	 81.27	 19.63	 0.0	 0.0	 2	    1.00000	    0.00000	 161.0	 11	    1.10000	    0.90000;
	2017	 1	 0.0	 0.0	 0.0	 -200.0	 2	    1.00000	    0.00000	 500.0	 10	    1.10000	    0.90000;
	2018	 1	 0.0	 0.0	 0.0	 0.0	 2	    1.00000	    0.00000	 161.0	 10	    1.10000	    0.90000;
	2019	 2	 0.0	 0.0	 0.0	 0.0	 2	    1.00000	    0.00000	 20.0	 10	    1.10000	    0.90000;
	2020	 1	 56.28	 13.59	 0.0	 0.0	 2	    1.00000	    0.00000	 161.0	 11	    1.10000	    0.90000;
	2021	 1	 0.0	 0.0	 0.0	 0.0	 2	    1.00000	    0.00000	 500.0	 11	    1.10000	    0.90000;
	2022	 1	 13.56	 3.28	 0.0	 0.0	 2	    1.00000	    0.00000	 161.0	 11	    1.10000	    0.90000;
	2023	 2	 0.0	 0.0	 0.0	 0.0	 2	    1.00000	    0.00000	 13.8	 11	    1.10000	    0.90000;
	2024	 2	 0.0	 0.0	 0.0	 0.0	 2	    1.00000	    0.00000	 13.8	 11	    1.10000	    0.90000;
	2025	 1	 46.48	 11.23	 0.0	 0.0	 2	    1.00000	    0.00000	 161.0	 11	    1.10000	    0.90000;
	2026	 1	 21.79	 5.26	 0.0	 0.0	 2	    1.00000	    0.00000	 161.0	 10	    1.10000	    0.90000;
	2027	 1	 4.16	 1.01	 0.0	 0.0	 2	    1.00000	    0.00000	 161.0	 11	    1.10000	    0.90000;
	2028	 1	 16.71	 4.03	 0.0	 0.0	 2	    1.00000	    0.00000	 161.0	 11	    1.10000	    0.90000;
	2029	 1	 3.75	 0.91	 0.0	 0.0	 2	    1.00000	    0.00000	 161.0	 10	    1.10000	    0.90000;
	2030	 1	 55.32	 13.36	 0.0	 0.0	 2	    1.00000	    0.00000	 161.0	 11	    1.10000	    0.90000;
	2031	 1	 6.77	 1.63	 0.0	 0.0	 2	    1.00000	    0.00000	 161.0	 10	    1.10000	    0.90000;
	2032	 1	 3.93	 0.95	 0.0	 0.0	 2	    1.00000	    0.00000	 161.0	 11	    1.10000	    0.90000;
	2033	 1	 15.92	 3.85	 0.0	 0.0	 2	    1.00000	    0.00000	 161.0	 11	    1.10000	    0.90000;
	2034	 1	 6.26	 1.51	 0.0	 0.0	 2	    1.00000	    0.00000	 161.0	 11	    1.10000	    0.90000;
	2035	 1	 5.49	 1.33	 0.0	 0.0	 2	    1.00000	    0.00000	 161.0	 10	    1.10000	    0.90000;
	2036	 1	 48.79	 11.78	 0.0	 0.0	 2	    1.00000	    0.00000	 161.0	 11	    1.10000	    0.90000;
	2037	 1	 4.11	 0.99	 0.0	 0.0	 2	    1.00000	    0.00000	 161.0	 11	    1.10000	    0.90000;
	2038	 1	 3.05	 0.74	 0.0	 0.0	 2	    1.00000	    0.00000	 161.0	 11	    1.10000	    0.90000;
	2039	 1	 6.52	 1.58	 0.0	 0.0	 2	    1.00000	    0.00000	 161.0	 11	    1.10000	    0.90000;
	2040	 1	 18.65	 4.51	 0.0	 0.0	 2	    1.00000	    0.00000	 161.0	 11	    1.10000	    0.90000;
	2041	 1	 0.0	 0.0	 0.0	 0.0	 2	    1.00000	    0.00000	 161.0	 10	    1.10000	    0.90000;
	2042	 2	 0.0	 0.0	 0.0	 0.0	 2	    1.00000	    0.00000	 18.0	 10	    1.10000	    0.90000;
	2043	 1	 4.97	 1.20	 0.0	 0.0	 2	    1.00000	    0.00000	 161.0	 11	    1.10000	    0.90000;
	2044	 1	 32.15	 7.76	 0.0	 0.0	 2	    1.00000	    0.00000	 161.0	 11	    1.10000	    0.90000;
	2045	 1	 26.53	 6.40	 0.0	 0.0	 2	    1.00000	    0.00000	 161.0	 11	    1.10000	    0.90000;
	2046	 1	 25.96	 6.27	 0.0	 0.0	 2	    1.00000	    0.00000	 161.0	 11	    1.10000	    0.90000;
	2047	 1	 17.55	 4.24	 0.0	 0.0	 2	    1.00000	    0.00000	 161.0	 11	    1.10000	    0.90000;
	2048	 1	 7.53	 1.82	 0.0	 0.0	 2	    1.00000	    0.00000	 161.0	 10	    1.10000	    0.90000;
	2049	 1	 13.57	 3.28	 0.0	 0.0	 2	    1.00000	    0.00000	 161.0	 10	    1.10000	    0.90000;
	2050	 1	 4.29	 1.04	 0.0	 0.0	 2	    1.00000	    0.00000	 161.0	 11	    1.10000	    0.90000;
	2051	 1	 20.94	 5.06	 0.0	 0.0	 2	    1.00000	    0.00000	 161.0	 11	    1.10000	    0.90000;
	2052	 1	 29.14	 7.04	 0.0	 0.0	 2	    1.00000	    0.00000	 161.0	 10	    1.10000	    0.90000;
	2053	 1	 34.18	 8.25	 0.0	 0.0	 2	    1.00000	    0.00000	 161.0	 11	    1.10000	    0.90000;
	2054	 1	 0.0	 0.0	 0.0	 0.0	 2	    1.00000	    0.00000	 500.0	 11	    1.10000	    0.90000;
	2055	 1	 58.21	 14.06	 0.0	 0.0	 2	    1.00000	    0.00000	 161.0	 11	    1.10000	    0.90000;
	2056	 2	 0.0	 0.0	 0.0	 0.0	 2	    1.00000	    0.00000	 18.0	 11	    1.10000	    0.90000;
	2057	 2	 0.0	 0.0	 0.0	 0.0	 2	    1.00000	    0.00000	 18.0	 11	    1.10000	    0.90000;
	2058	 1	 0.0	 0.0	 0.0	 0.0	 2	    1.00000	    0.00000	 161.0	 10	    1.10000	    0.90000;
	2059	 2	 0.0	 0.0	 0.0	 0.0	 2	    1.00000	    0.00000	 13.8	 10	    1.10000	    0.90000;
	2060	 1	 4.46	 1.08	 0.0	 0.0	 2	    1.00000	    0.00000	 161.0	 11	    1.10000	    0.90000;
	2061	 1	 0.0	 0.0	 0.0	 0.0	 2	    1.00000	    0.00000	 161.0	 10	    1.10000	    0.90000;
	2062	 2	 0.0	 0.0	 0.0	 0.0	 2	    1.00000	    0.00000	 18.0	 10	    1.10000	    0.90000;
	2063	 1	 76.99	 18.59	 0.0	 40.0	 2	    1.00000	    0.00000	 161.0	 11	    1.10000	    0.90000;
	2064	 1	 11.79	 2.85	 0.0	 0.0	 2	    1.00000	    0.00000	 161.0	 11	    1.10000	    0.90000;
	2065	 1	 91.93	 22.20	 0.0	 94.98	 2	    1.00000	    0.00000	 161.0	 11	    1.10000	    0.90000;
	2066	 1	 8.34	 2.02	 0.0	 0.0	 2	    1.00000	    0.00000	 161.0	 10	    1.10000	    0.90000;
	2067	 1	 63.32	 15.29	 0.0	 0.0	 2	    1.00000	    0.00000	 161.0	 11	    1.10000	    0.90000;
	2068	 1	 6.76	 1.63	 0.0	 0.0	 2	    1.00000	    0.00000	 161.0	 11	    1.10000	    0.90000;
	2069	 1	 25.72	 6.21	 0.0	 110.69	 2	    1.00000	    0.00000	 161.0	 11	    1.10000	    0.90000;
	2070	 1	 0.0	 0.0	 0.0	 0.0	 2	    1.00000	    0.00000	 161.0	 11	    1.10000	    0.90000;
	2071	 2	 0.0	 0.0	 0.0	 0.0	 2	    1.00000	    0.00000	 18.0	 11	    1.10000	    0.90000;
	2072	 1	 11.39	 2.75	 0.0	 0.0	 2	    1.00000	    0.00000	 161.0	 11	    1.10000	    0.90000;
	2073	 1	 0.0	 0.0	 0.0	 0.0	 2	    1.00000	    0.00000	 161.0	 10	    1.10000	    0.90000;
	2074	 1	 0.0	 0.0	 0.0	 0.0	 2	    1.00000	    0.00000	 115.0	 10	    1.10000	    0.90000;
	2075	 1	 0.0	 0.0	 0.0	 0.0	 2	    1.00000	    0.00000	 115.0	 10	    1.10000	    0.90000;
	2076	 2	 0.0	 0.0	 0.0	 0.0	 2	    1.00000	    0.00000	 24.0	 10	    1.10000	    0.90000;
	2077	 1	 0.0	 0.0	 0.0	 0.0	 2	    1.00000	    0.00000	 161.0	 11	    1.10000	    0.90000;
	2078	 2	 0.0	 0.0	 0.0	 0.0	 2	    1.00000	    0.00000	 13.8	 11	    1.10000	    0.90000;
	2079	 1	 5.26	 1.27	 0.0	 0.0	 2	    1.00000	    0.00000	 161.0	 10	    1.10000	    0.90000;
	2080	 1	 19.86	 4.80	 0.0	 0.0	 2	    1.00000	    0.00000	 161.0	 11	    1.10000	    0.90000;
	2081	 1	 5.23	 1.26	 0.0	 0.0	 2	    1.00000	    0.00000	 161.0	 11	    1.10000	    0.90000;
	2082	 1	 69.25	 16.73	 0.0	 0.0	 2	    1.00000	    0.00000	 161.0	 11	    1.10000	    0.90000;
	2083	 2	 0.0	 0.0	 0.0	 0.0	 2	    1.00000	    0.00000	 20.0	 11	    1.10000	    0.90000;
	2084	 2	 0.0	 0.0	 0.0	 0.0	 2	    1.00000	    0.00000	 20.0	 11	    1.10000	    0.90000;
	2085	 2	 0.0	 0.0	 0.0	 0.0	 2	    1.00000	    0.00000	 20.0	 11	    1.10000	    0.90000;
	2086	 1	 2.57	 0.62	 0.0	 0.0	 2	    1.00000	    0.00000	 161.0	 11	    1.10000	    0.90000;
	2087	 1	 9.27	 2.24	 0.0	 0.0	 2	    1.00000	    0.00000	 161.0	 10	    1.10000	    0.90000;
	2088	 1	 0.0	 0.0	 0.0	 0.0	 2	    1.00000	    0.00000	 161.0	 11	    1.10000	    0.90000;
	2089	 2	 0.0	 0.0	 0.0	 0.0	 2	    1.00000	    0.00000	 24.0	 11	    1.10000	    0.90000;
	2090	 1	 2.84	 0.69	 0.0	 0.0	 2	    1.00000	    0.00000	 161.0	 11	    1.10000	    0.90000;
	2091	 1	 20.00	 4.83	 0.0	 0.0	 2	    1.00000	    0.00000	 161.0	 10	    1.10000	    0.90000;
	2092	 1	 28.29	 6.83	 0.0	 0.0	 2	    1.00000	    0.00000	 161.0	 11	    1.10000	    0.90000;
	2093	 1	 0.0	 0.0	 0.0	 0.0	 2	    1.00000	    0.00000	 161.0	 10	    1.10000	    0.90000;
	2094	 2	 0.0	 0.0	 0.0	 0.0	 2	    1.00000	    0.00000	 13.8	 10	    1.10000	    0.90000;
	2095	 2	 0.0	 0.0	 0.0	 0.0	 2	    1.00000	    0.00000	 13.8	 10	    1.10000	    0.90000;
	2096	 1	 0.0	 0.0	 0.0	 -122.33	 2	    1.00000	    0.00000	 500.0	 10	    1.10000	    0.90000;
	2097	 1	 0.0	 0.0	 0.0	 0.0	 2	    1.00000	    0.00000	 230.0	 10	    1.10000	    0.90000;
	2098	 1	 0.0	 0.0	 0.0	 0.0	 2	    1.00000	    0.00000	 161.0	 10	    1.10000	    0.90000;
	2099	 2	 0.0	 0.0	 0.0	 0.0	 2	    1.00000	    0.00000	 18.0	 10	    1.10000	    0.90000;
	2100	 2	 0.0	 0.0	 0.0	 0.0	 2	    1.00000	    0.00000	 18.0	 10	    1.10000	    0.90000;
	2101	 1	 0.0	 0.0	 0.0	 0.0	 2	    1.00000	    0.00000	 500.0	 11	    1.10000	    0.90000;
	2102	 1	 0.0	 0.0	 0.0	 0.0	 2	    1.00000	    0.00000	 161.0	 11	    1.10000	    0.90000;
	2103	 2	 0.0	 0.0	 0.0	 0.0	 2	    1.00000	    0.00000	 20.0	 11	    1.10000	    0.90000;
	2104	 2	 0.0	 0.0	 0.0	 0.0	 2	    1.00000	    0.00000	 20.0	 11	    1.10000	    0.90000;
	2105	 2	 0.0	 0.0	 0.0	 0.0	 2	    1.00000	    0.00000	 20.0	 11	    1.10000	    0.90000;
	2106	 1	 16.89	 4.08	 0.0	 0.0	 2	    1.00000	    0.00000	 161.0	 11	    1.10000	    0.90000;
	2107	 1	 86.99	 21.01	 0.0	 0.0	 2	    1.00000	    0.00000	 161.0	 11	    1.10000	    0.90000;
	2108	 1	 2.51	 0.61	 0.0	 0.0	 2	    1.00000	    0.00000	 161.0	 10	    1.10000	    0.90000;
	2109	 1	 39.67	 9.58	 0.0	 0.0	 2	    1.00000	    0.00000	 161.0	 11	    1.10000	    0.90000;
	2110	 1	 10.08	 2.43	 0.0	 40.13	 2	    1.00000	    0.00000	 161.0	 11	    1.10000	    0.90000;
	2111	 1	 16.37	 3.95	 0.0	 0.0	 2	    1.00000	    0.00000	 161.0	 11	    1.10000	    0.90000;
	2112	 1	 5.33	 1.29	 0.0	 0.0	 2	    1.00000	    0.00000	 161.0	 11	    1.10000	    0.90000;
	2113	 1	 0.0	 0.0	 0.0	 0.0	 2	    1.00000	    0.00000	 500.0	 11	    1.10000	    0.90000;
	2114	 1	 83.04	 20.05	 0.0	 0.0	 2	    1.00000	    0.00000	 161.0	 11	    1.10000	    0.90000;
	2115	 2	 0.0	 0.0	 0.0	 0.0	 2	    1.00000	    0.00000	 13.8	 11	    1.10000	    0.90000;
	2116	 2	 0.0	 0.0	 0.0	 0.0	 2	    1.00000	    0.00000	 13.8	 11	    1.10000	    0.90000;
	2117	 2	 0.0	 0.0	 0.0	 0.0	 2	    1.00000	    0.00000	 13.8	 11	    1.10000	    0.90000;
	2118	 2	 0.0	 0.0	 0.0	 0.0	 2	    1.00000	    0.00000	 13.8	 11	    1.10000	    0.90000;
	2119	 2	 0.0	 0.0	 0.0	 0.0	 2	    1.00000	    0.00000	 13.8	 11	    1.10000	    0.90000;
	2120	 2	 0.0	 0.0	 0.0	 0.0	 2	    1.00000	    0.00000	 13.8	 11	    1.10000	    0.90000;
	2121	 1	 2.73	 0.66	 0.0	 0.0	 2	    1.00000	    0.00000	 161.0	 11	    1.10000	    0.90000;
	2122	 1	 7.88	 1.90	 0.0	 0.0	 2	    1.00000	    0.00000	 161.0	 11	    1.10000	    0.90000;
	2123	 2	 0.0	 0.0	 0.0	 0.0	 2	    1.00000	    0.00000	 161.0	 10	    1.10000	    0.90000;
	2124	 1	 24.98	 6.03	 0.0	 0.0	 2	    1.00000	    0.00000	 161.0	 11	    1.10000	    0.90000;
	2125	 1	 4.76	 1.15	 0.0	 0.0	 2	    1.00000	    0.00000	 161.0	 11	    1.10000	    0.90000;
	2126	 1	 16.71	 4.03	 0.0	 0.0	 2	    1.00000	    0.00000	 161.0	 11	    1.10000	    0.90000;
	2127	 2	 0.0	 0.0	 0.0	 -155.97	 2	    1.00000	    0.00000	 500.0	 10	    1.10000	    0.90000;
	2128	 1	 0.0	 0.0	 0.0	 0.0	 2	    1.00000	    0.00000	 161.0	 10	    1.10000	    0.90000;
	2129	 1	 7.78	 1.88	 0.0	 0.0	 2	    1.00000	    0.00000	 161.0	 11	    1.10000	    0.90000;
	2130	 1	 0.0	 0.0	 0.0	 0.0	 2	    1.00000	    0.00000	 161.0	 10	    1.10000	    0.90000;
	2131	 1	 0.0	 0.0	 0.0	 0.0	 2	    1.00000	    0.00000	 115.0	 10	    1.10000	    0.90000;
	2132	 1	 14.01	 3.38	 0.0	 10.0	 2	    1.00000	    0.00000	 115.0	 10	    1.10000	    0.90000;
	2133	 1	 6.66	 1.61	 0.0	 0.0	 2	    1.00000	    0.00000	 161.0	 11	    1.10000	    0.90000;
	3001	 1	 0.0	 0.0	 0.0	 0.0	 3	    1.00000	    0.00000	 230.0	 28	    1.10000	    0.90000;
	3002	 1	 132.41	 31.98	 0.0	 0.0	 3	    1.00000	    0.00000	 115.0	 28	    1.10000	    0.90000;
	3003	 1	 0.0	 0.0	 0.0	 0.0	 3	    1.00000	    0.00000	 115.0	 27	    1.10000	    0.90000;
	3004	 2	 0.0	 0.0	 0.0	 0.0	 3	    1.00000	    0.00000	 18.0	 27	    1.10000	    0.90000;
	3005	 1	 8.61	 2.08	 0.0	 0.0	 3	    1.00000	    0.00000	 115.0	 28	    1.10000	    0.90000;
	3006	 1	 8.62	 2.08	 0.0	 0.0	 3	    1.00000	    0.00000	 115.0	 27	    1.10000	    0.90000;
	3007	 1	 17.55	 4.24	 0.0	 0.0	 3	    1.00000	    0.00000	 115.0	 27	    1.10000	    0.90000;
	3008	 1	 23.24	 5.61	 0.0	 0.0	 3	    1.00000	    0.00000	 115.0	 27	    1.10000	    0.90000;
	3009	 1	 14.71	 3.55	 0.0	 0.0	 3	    1.00000	    0.00000	 115.0	 28	    1.10000	    0.90000;
	3010	 1	 5.48	 1.32	 0.0	 0.0	 3	    1.00000	    0.00000	 115.0	 28	    1.10000	    0.90000;
	3011	 1	 31.84	 7.69	 0.0	 0.0	 3	    1.00000	    0.00000	 115.0	 28	    1.10000	    0.90000;
	3012	 1	 0.66	 0.16	 0.0	 0.0	 3	    1.00000	    0.00000	 115.0	 28	    1.10000	    0.90000;
	3013	 1	 75.74	 18.29	 0.0	 65.0	 3	    1.00000	    0.00000	 115.0	 27	    1.10000	    0.90000;
	3014	 1	 25.81	 6.23	 0.0	 0.0	 3	    1.00000	    0.00000	 115.0	 28	    1.10000	    0.90000;
	3015	 1	 6.29	 1.52	 0.0	 0.0	 3	    1.00000	    0.00000	 115.0	 27	    1.10000	    0.90000;
	3016	 1	 0.0	 0.0	 0.0	 0.0	 3	    1.00000	    0.00000	 115.0	 27	    1.10000	    0.90000;
	3017	 2	 0.0	 0.0	 0.0	 0.0	 3	    1.00000	    0.00000	 18.0	 27	    1.10000	    0.90000;
	3018	 1	 0.0	 0.0	 0.0	 0.0	 3	    1.00000	    0.00000	 230.0	 27	    1.10000	    0.90000;
	3019	 1	 0.0	 0.0	 0.0	 27.84	 3	    1.00000	    0.00000	 115.0	 27	    1.10000	    0.90000;
	3020	 2	 0.0	 0.0	 0.0	 0.0	 3	    1.00000	    0.00000	 13.8	 27	    1.10000	    0.90000;
	3021	 1	 2.28	 0.55	 0.0	 0.0	 3	    1.00000	    0.00000	 115.0	 27	    1.10000	    0.90000;
	3022	 1	 28.85	 6.97	 0.0	 0.0	 3	    1.00000	    0.00000	 115.0	 27	    1.10000	    0.90000;
	3023	 1	 12.21	 2.95	 0.0	 46.37	 3	    1.00000	    0.00000	 115.0	 27	    1.10000	    0.90000;
	3024	 1	 11.88	 2.87	 0.0	 0.0	 3	    1.00000	    0.00000	 115.0	 28	    1.10000	    0.90000;
	3025	 1	 16.04	 3.87	 0.0	 0.0	 3	    1.00000	    0.00000	 115.0	 28	    1.10000	    0.90000;
	3026	 1	 0.0	 0.0	 0.0	 0.0	 3	    1.00000	    0.00000	 230.0	 27	    1.10000	    0.90000;
	3027	 1	 0.0	 0.0	 0.0	 0.0	 3	    1.00000	    0.00000	 115.0	 27	    1.10000	    0.90000;
	3028	 2	 0.0	 0.0	 0.0	 0.0	 3	    1.00000	    0.00000	 18.0	 27	    1.10000	    0.90000;
	3029	 1	 5.71	 1.38	 0.0	 0.0	 3	    1.00000	    0.00000	 115.0	 28	    1.10000	    0.90000;
	3030	 1	 152.19	 36.75	 0.0	 80.0	 3	    1.00000	    0.00000	 115.0	 27	    1.10000	    0.90000;
	3031	 1	 17.28	 4.17	 0.0	 0.0	 3	    1.00000	    0.00000	 115.0	 27	    1.10000	    0.90000;
	3032	 1	 85.48	 20.64	 0.0	 0.0	 3	    1.00000	    0.00000	 115.0	 27	    1.10000	    0.90000;
	3033	 1	 0.0	 0.0	 0.0	 0.0	 3	    1.00000	    0.00000	 115.0	 27	    1.10000	    0.90000;
	3034	 2	 0.0	 0.0	 0.0	 0.0	 3	    1.00000	    0.00000	 22.0	 27	    1.10000	    0.90000;
	3035	 1	 4.07	 0.98	 0.0	 0.0	 3	    1.00000	    0.00000	 115.0	 28	    1.10000	    0.90000;
	3036	 1	 6.80	 1.64	 0.0	 0.0	 3	    1.00000	    0.00000	 115.0	 28	    1.10000	    0.90000;
	3037	 1	 0.0	 0.0	 0.0	 0.0	 3	    1.00000	    0.00000	 230.0	 27	    1.10000	    0.90000;
	3038	 1	 0.0	 0.0	 0.0	 0.0	 3	    1.00000	    0.00000	 115.0	 27	    1.10000	    0.90000;
	3039	 2	 0.0	 0.0	 0.0	 0.0	 3	    1.00000	    0.00000	 13.8	 27	    1.10000	    0.90000;
	3040	 1	 17.14	 4.14	 0.0	 0.0	 3	    1.00000	    0.00000	 115.0	 27	    1.10000	    0.90000;
	3041	 1	 0.0	 0.0	 0.0	 0.0	 3	    1.00000	    0.00000	 230.0	 27	    1.10000	    0.90000;
	3042	 1	 10.27	 2.48	 0.0	 0.0	 3	    1.00000	    0.00000	 115.0	 27	    1.10000	    0.90000;
	3043	 2	 0.0	 0.0	 0.0	 0.0	 3	    1.00000	    0.00000	 13.8	 27	    1.10000	    0.90000;
	3044	 2	 0.0	 0.0	 0.0	 0.0	 3	    1.00000	    0.00000	 13.8	 27	    1.10000	    0.90000;
	3045	 2	 0.0	 0.0	 0.0	 0.0	 3	    1.00000	    0.00000	 13.8	 27	    1.10000	    0.90000;
	3046	 1	 0.0	 0.0	 0.0	 200.0	 3	    1.00000	    0.00000	 230.0	 27	    1.10000	    0.90000;
	3047	 1	 0.0	 0.0	 0.0	 99.71	 3	    1.00000	    0.00000	 115.0	 27	    1.10000	    0.90000;
	3048	 2	 0.0	 0.0	 0.0	 0.0	 3	    1.00000	    0.00000	 500.0	 27	    1.10000	    0.90000;
	3049	 1	 12.41	 3.00	 0.0	 0.0	 3	    1.00000	    0.00000	 115.0	 27	    1.10000	    0.90000;
	3050	 1	 0.0	 0.0	 0.0	 65.0	 3	    1.00000	    0.00000	 230.0	 28	    1.10000	    0.90000;
	3051	 1	 170.45	 41.17	 0.0	 20.0	 3	    1.00000	    0.00000	 115.0	 28	    1.10000	    0.90000;
	3052	 1	 9.48	 2.29	 0.0	 0.0	 3	    1.00000	    0.00000	 115.0	 28	    1.10000	    0.90000;
	3053	 1	 0.0	 0.0	 0.0	 0.0	 3	    1.00000	    0.00000	 230.0	 27	    1.10000	    0.90000;
	3054	 1	 0.0	 0.0	 0.0	 0.0	 3	    1.00000	    0.00000	 115.0	 27	    1.10000	    0.90000;
	3055	 2	 0.0	 0.0	 0.0	 0.0	 3	    1.00000	    0.00000	 13.8	 27	    1.10000	    0.90000;
	3056	 2	 0.0	 0.0	 0.0	 0.0	 3	    1.00000	    0.00000	 13.8	 27	    1.10000	    0.90000;
	3057	 2	 0.0	 0.0	 0.0	 0.0	 3	    1.00000	    0.00000	 13.8	 27	    1.10000	    0.90000;
	3058	 1	 0.0	 0.0	 0.0	 0.0	 3	    1.00000	    0.00000	 230.0	 27	    1.10000	    0.90000;
	3059	 1	 0.0	 0.0	 0.0	 0.0	 3	    1.00000	    0.00000	 115.0	 27	    1.10000	    0.90000;
	3060	 2	 0.0	 0.0	 0.0	 0.0	 3	    1.00000	    0.00000	 18.0	 27	    1.10000	    0.90000;
	3061	 2	 0.0	 0.0	 0.0	 0.0	 3	    1.00000	    0.00000	 18.0	 27	    1.10000	    0.90000;
	3062	 2	 0.0	 0.0	 0.0	 0.0	 3	    1.00000	    0.00000	 18.0	 27	    1.10000	    0.90000;
	3063	 2	 0.0	 0.0	 0.0	 0.0	 3	    1.00000	    0.00000	 18.0	 27	    1.10000	    0.90000;
	3064	 1	 0.0	 0.0	 0.0	 0.0	 3	    1.00000	    0.00000	 115.0	 27	    1.10000	    0.90000;
	3065	 2	 0.0	 0.0	 0.0	 0.0	 3	    1.00000	    0.00000	 18.0	 27	    1.10000	    0.90000;
	3066	 1	 25.85	 6.24	 0.0	 0.0	 3	    1.00000	    0.00000	 115.0	 28	    1.10000	    0.90000;
	3067	 1	 0.0	 0.0	 0.0	 0.0	 3	    1.00000	    0.00000	 115.0	 27	    1.10000	    0.90000;
	3068	 2	 0.0	 0.0	 0.0	 0.0	 3	    1.00000	    0.00000	 20.0	 27	    1.10000	    0.90000;
	3069	 1	 4.47	 1.08	 0.0	 0.0	 3	    1.00000	    0.00000	 115.0	 27	    1.10000	    0.90000;
	3070	 1	 0.0	 0.0	 0.0	 0.0	 3	    1.00000	    0.00000	 115.0	 27	    1.10000	    0.90000;
	3071	 2	 0.0	 0.0	 0.0	 0.0	 3	    1.00000	    0.00000	 24.0	 27	    1.10000	    0.90000;
	3072	 1	 7.02	 1.70	 0.0	 0.0	 3	    1.00000	    0.00000	 115.0	 27	    1.10000	    0.90000;
	3073	 1	 0.0	 0.0	 0.0	 0.0	 3	    1.00000	    0.00000	 115.0	 28	    1.10000	    0.90000;
	3074	 2	 0.0	 0.0	 0.0	 0.0	 3	    1.00000	    0.00000	 13.8	 28	    1.10000	    0.90000;
	3075	 1	 14.29	 3.45	 0.0	 0.0	 3	    1.00000	    0.00000	 115.0	 28	    1.10000	    0.90000;
	3076	 1	 12.66	 3.06	 0.0	 0.0	 3	    1.00000	    0.00000	 115.0	 28	    1.10000	    0.90000;
	3077	 1	 80.55	 19.45	 0.0	 0.0	 3	    1.00000	    0.00000	 115.0	 27	    1.10000	    0.90000;
	3078	 1	 0.0	 0.0	 0.0	 0.0	 3	    1.00000	    0.00000	 230.0	 27	    1.10000	    0.90000;
	3079	 1	 0.0	 0.0	 0.0	 0.0	 3	    1.00000	    0.00000	 161.0	 27	    1.10000	    0.90000;
	3080	 1	 0.0	 0.0	 0.0	 0.0	 3	    1.00000	    0.00000	 115.0	 27	    1.10000	    0.90000;
	3081	 2	 0.0	 0.0	 0.0	 0.0	 3	    1.00000	    0.00000	 20.0	 27	    1.10000	    0.90000;
	3082	 1	 0.0	 0.0	 0.0	 0.0	 3	    1.00000	    0.00000	 230.0	 27	    1.10000	    0.90000;
	3083	 1	 0.0	 0.0	 0.0	 0.0	 3	    1.00000	    0.00000	 115.0	 27	    1.10000	    0.90000;
	3084	 2	 0.0	 0.0	 0.0	 0.0	 3	    1.00000	    0.00000	 13.8	 27	    1.10000	    0.90000;
	3085	 1	 0.0	 0.0	 0.0	 0.0	 3	    1.00000	    0.00000	 115.0	 27	    1.10000	    0.90000;
	3086	 2	 0.0	 0.0	 0.0	 0.0	 3	    1.00000	    0.00000	 13.2	 27	    1.10000	    0.90000;
	3087	 2	 0.0	 0.0	 0.0	 0.0	 3	    1.00000	    0.00000	 13.2	 27	    1.10000	    0.90000;
	3088	 1	 0.0	 0.0	 0.0	 34.55	 3	    1.00000	    0.00000	 230.0	 27	    1.10000	    0.90000;
	3089	 1	 0.0	 0.0	 0.0	 0.0	 3	    1.00000	    0.00000	 161.0	 27	    1.10000	    0.90000;
	3090	 1	 0.0	 0.0	 0.0	 0.0	 3	    1.00000	    0.00000	 161.0	 27	    1.10000	    0.90000;