%%%%%%%%%%%%%%%%%%%%%%%%%%%%%%%%%%%%%%%%%%%%%%%%%%%%%%%%%%%%%%%%%%%%%%%%%%%
%%%%                                                                  %%%%%
%%%%    IEEE PES Power Grid Library - Optimal Power Flow - v17.07     %%%%%
%%%%          (https://github.com/power-grid-lib/pglib-opf)           %%%%%
%%%%             Benchmark Group - Active Power Increase              %%%%%
%%%%                         27 - June - 2017                         %%%%%
%%%%                                                                  %%%%%
%%%%%%%%%%%%%%%%%%%%%%%%%%%%%%%%%%%%%%%%%%%%%%%%%%%%%%%%%%%%%%%%%%%%%%%%%%%
function mpc = pglib_opf_case118_ieee__api
mpc.version = '2';
mpc.baseMVA = 100.0;

%% bus data
%	bus_i	type	Pd	Qd	Gs	Bs	area	Vm	Va	baseKV	zone	Vmax	Vmin
mpc.bus = [
	1	 2	 85.45	 27.00	 0.0	 0.0	 1	    1.06000	   16.16915	 138.0	 1	    1.06000	    0.94000;
	2	 1	 33.51	 9.00	 0.0	 0.0	 1	    1.04296	   18.73983	 138.0	 1	    1.06000	    0.94000;
	3	 1	 65.34	 10.00	 0.0	 0.0	 1	    1.04938	   17.43146	 138.0	 1	    1.06000	    0.94000;
	4	 2	 65.34	 12.00	 0.0	 0.0	 1	    1.06000	   20.97199	 138.0	 1	    1.06000	    0.94000;
	5	 1	 0.00	 0.00	 0.0	 -40.0	 1	    1.05119	   21.53242	 138.0	 1	    1.06000	    0.94000;
	6	 2	 87.12	 22.00	 0.0	 0.0	 1	    1.06000	   19.70678	 138.0	 1	    1.06000	    0.94000;
	7	 1	 31.83	 2.00	 0.0	 0.0	 1	    1.05265	   20.11221	 138.0	 1	    1.06000	    0.94000;
	8	 2	 28.00	 0.00	 0.0	 0.0	 1	    1.00637	   25.61733	 345.0	 1	    1.06000	    0.94000;
	9	 1	 0.00	 0.00	 0.0	 0.0	 1	    1.01712	   37.54059	 345.0	 1	    1.06000	    0.94000;
	10	 2	 0.00	 0.00	 0.0	 0.0	 1	    1.03644	   49.94528	 345.0	 1	    1.06000	    0.94000;
	11	 1	 117.28	 23.00	 0.0	 0.0	 1	    1.03387	   19.83833	 138.0	 1	    1.06000	    0.94000;
	12	 2	 78.75	 10.00	 0.0	 0.0	 1	    1.04422	   21.36896	 138.0	 1	    1.06000	    0.94000;
	13	 1	 56.96	 16.00	 0.0	 0.0	 1	    0.99329	   15.16624	 138.0	 1	    1.06000	    0.94000;
	14	 1	 23.46	 1.00	 0.0	 0.0	 1	    1.01083	   16.88336	 138.0	 1	    1.06000	    0.94000;
	15	 2	 150.79	 30.00	 0.0	 0.0	 1	    0.95318	    6.08933	 138.0	 1	    1.06000	    0.94000;
	16	 1	 41.89	 10.00	 0.0	 0.0	 1	    1.00761	   16.70493	 138.0	 1	    1.06000	    0.94000;
	17	 1	 18.43	 3.00	 0.0	 0.0	 1	    0.97341	   10.12842	 138.0	 1	    1.06000	    0.94000;
	18	 2	 100.53	 34.00	 0.0	 0.0	 1	    0.98364	    4.98698	 138.0	 1	    1.06000	    0.94000;
	19	 2	 75.39	 25.00	 0.0	 0.0	 1	    0.98035	    3.38684	 138.0	 1	    1.06000	    0.94000;
	20	 1	 30.16	 3.00	 0.0	 0.0	 1	    0.97447	    1.60166	 138.0	 1	    1.06000	    0.94000;
	21	 1	 23.46	 8.00	 0.0	 0.0	 1	    0.97671	    1.83690	 138.0	 1	    1.06000	    0.94000;
	22	 1	 16.75	 5.00	 0.0	 0.0	 1	    0.99041	    3.37765	 138.0	 1	    1.06000	    0.94000;
	23	 1	 11.73	 3.00	 0.0	 0.0	 1	    1.02447	    7.25733	 138.0	 1	    1.06000	    0.94000;
	24	 2	 13.00	 0.00	 0.0	 0.0	 1	    1.03601	    3.21504	 138.0	 1	    1.06000	    0.94000;
	25	 2	 0.00	 0.00	 0.0	 0.0	 1	    1.04308	   15.25171	 138.0	 1	    1.06000	    0.94000;
	26	 2	 0.00	 0.00	 0.0	 0.0	 1	    0.94000	   21.13981	 345.0	 1	    1.06000	    0.94000;
	27	 2	 118.96	 13.00	 0.0	 0.0	 1	    1.06000	    7.40934	 138.0	 1	    1.06000	    0.94000;
	28	 1	 28.48	 7.00	 0.0	 0.0	 1	    1.02625	   10.20910	 138.0	 1	    1.06000	    0.94000;
	29	 1	 40.21	 4.00	 0.0	 0.0	 1	    1.00600	   14.96950	 138.0	 1	    1.06000	    0.94000;
	30	 1	 0.00	 0.00	 0.0	 0.0	 1	    0.96124	   14.69980	 345.0	 1	    1.06000	    0.94000;
	31	 2	 72.04	 27.00	 0.0	 0.0	 1	    1.00819	   17.46018	 138.0	 1	    1.06000	    0.94000;
	32	 2	 98.85	 23.00	 0.0	 0.0	 1	    0.99443	    8.67701	 138.0	 1	    1.06000	    0.94000;
	33	 1	 38.54	 9.00	 0.0	 0.0	 1	    0.98574	    0.50329	 138.0	 1	    1.06000	    0.94000;
	34	 2	 98.85	 26.00	 0.0	 14.0	 1	    1.06000	   -3.05860	 138.0	 1	    1.06000	    0.94000;
	35	 1	 55.29	 9.00	 0.0	 0.0	 1	    1.05743	   -3.82219	 138.0	 1	    1.06000	    0.94000;
	36	 2	 51.94	 17.00	 0.0	 0.0	 1	    1.06000	   -3.85072	 138.0	 1	    1.06000	    0.94000;
	37	 1	 0.00	 0.00	 0.0	 -25.0	 1	    1.05487	   -2.31553	 138.0	 1	    1.06000	    0.94000;
	38	 1	 0.00	 0.00	 0.0	 0.0	 1	    0.96945	    5.34812	 345.0	 1	    1.06000	    0.94000;
	39	 1	 45.24	 11.00	 0.0	 0.0	 1	    1.04443	   -9.34855	 138.0	 1	    1.06000	    0.94000;
	40	 2	 110.58	 23.00	 0.0	 0.0	 1	    1.05705	  -12.00908	 138.0	 1	    1.06000	    0.94000;
	41	 1	 61.99	 10.00	 0.0	 0.0	 1	    1.03522	  -13.07053	 138.0	 1	    1.06000	    0.94000;
	42	 2	 160.84	 23.00	 0.0	 0.0	 1	    1.00942	  -11.71799	 138.0	 1	    1.06000	    0.94000;
	43	 1	 30.16	 7.00	 0.0	 0.0	 1	    1.03670	   -3.69353	 138.0	 1	    1.06000	    0.94000;
	44	 1	 26.81	 8.00	 0.0	 10.0	 1	    1.02530	   -0.70576	 138.0	 1	    1.06000	    0.94000;
	45	 1	 88.80	 22.00	 0.0	 10.0	 1	    1.02244	    1.81168	 138.0	 1	    1.06000	    0.94000;
	46	 2	 46.91	 10.00	 0.0	 10.0	 1	    1.06000	   10.31232	 138.0	 1	    1.06000	    0.94000;
	47	 1	 34.00	 0.00	 0.0	 0.0	 1	    1.04167	    4.53542	 138.0	 1	    1.06000	    0.94000;
	48	 1	 33.51	 11.00	 0.0	 15.0	 1	    1.05036	    4.43973	 138.0	 1	    1.06000	    0.94000;
	49	 2	 145.76	 30.00	 0.0	 0.0	 1	    1.04982	    3.80503	 138.0	 1	    1.06000	    0.94000;
	50	 1	 28.48	 4.00	 0.0	 0.0	 1	    1.03947	    2.85720	 138.0	 1	    1.06000	    0.94000;
	51	 1	 28.48	 8.00	 0.0	 0.0	 1	    1.02329	    1.74804	 138.0	 1	    1.06000	    0.94000;
	52	 1	 30.16	 5.00	 0.0	 0.0	 1	    1.01781	    1.13283	 138.0	 1	    1.06000	    0.94000;
	53	 1	 38.54	 11.00	 0.0	 0.0	 1	    1.02151	    2.06616	 138.0	 1	    1.06000	    0.94000;
	54	 2	 189.32	 32.00	 0.0	 0.0	 1	    1.04410	    5.16943	 138.0	 1	    1.06000	    0.94000;
	55	 2	 105.55	 22.00	 0.0	 0.0	 1	    1.04019	    4.12266	 138.0	 1	    1.06000	    0.94000;
	56	 2	 140.74	 18.00	 0.0	 0.0	 1	    1.04011	    4.38849	 138.0	 1	    1.06000	    0.94000;
	57	 1	 20.11	 3.00	 0.0	 0.0	 1	    1.03586	    3.14574	 138.0	 1	    1.06000	    0.94000;
	58	 1	 20.11	 3.00	 0.0	 0.0	 1	    1.02698	    2.44252	 138.0	 1	    1.06000	    0.94000;
	59	 2	 464.10	 113.00	 0.0	 0.0	 1	    1.06000	    9.57807	 138.0	 1	    1.06000	    0.94000;
	60	 1	 130.68	 3.00	 0.0	 0.0	 1	    1.04803	    6.38194	 138.0	 1	    1.06000	    0.94000;
	61	 2	 0.00	 0.00	 0.0	 0.0	 1	    1.05072	    7.17408	 138.0	 1	    1.06000	    0.94000;
	62	 2	 129.01	 14.00	 0.0	 0.0	 1	    1.04694	    5.65822	 138.0	 1	    1.06000	    0.94000;
	63	 1	 0.00	 0.00	 0.0	 0.0	 1	    1.01023	    9.47077	 345.0	 1	    1.06000	    0.94000;
	64	 1	 0.00	 0.00	 0.0	 0.0	 1	    1.00381	    9.44067	 345.0	 1	    1.06000	    0.94000;
	65	 2	 0.00	 0.00	 0.0	 0.0	 1	    0.95543	   12.48317	 345.0	 1	    1.06000	    0.94000;
	66	 2	 65.34	 18.00	 0.0	 0.0	 1	    1.06000	    8.53479	 138.0	 1	    1.06000	    0.94000;
	67	 1	 46.91	 7.00	 0.0	 0.0	 1	    1.04596	    5.90568	 138.0	 1	    1.06000	    0.94000;
	68	 1	 0.00	 0.00	 0.0	 0.0	 1	    0.94195	    5.54169	 345.0	 1	    1.06000	    0.94000;
	69	 3	 0.00	 0.00	 0.0	 0.0	 1	    0.98994	   -0.00000	 138.0	 1	    1.06000	    0.94000;
	70	 2	 110.58	 20.00	 0.0	 0.0	 1	    1.06000	   -9.34651	 138.0	 1	    1.06000	    0.94000;
	71	 1	 0.00	 0.00	 0.0	 0.0	 1	    1.06000	   -8.54518	 138.0	 1	    1.06000	    0.94000;
	72	 2	 12.00	 0.00	 0.0	 0.0	 1	    1.06000	   -3.83844	 138.0	 1	    1.06000	    0.94000;
	73	 2	 6.00	 0.00	 0.0	 0.0	 1	    1.05961	   -8.68518	 138.0	 1	    1.06000	    0.94000;
	74	 2	 113.93	 27.00	 0.0	 12.0	 1	    0.94000	  -12.18673	 138.0	 1	    1.06000	    0.94000;
	75	 1	 78.75	 11.00	 0.0	 0.0	 1	    0.95675	  -10.89513	 138.0	 1	    1.06000	    0.94000;
	76	 2	 113.93	 36.00	 0.0	 0.0	 1	    0.94000	  -14.12973	 138.0	 1	    1.06000	    0.94000;
	77	 2	 102.20	 28.00	 0.0	 0.0	 1	    1.00421	   -6.15299	 138.0	 1	    1.06000	    0.94000;
	78	 1	 118.96	 26.00	 0.0	 0.0	 1	    0.99757	   -6.68854	 138.0	 1	    1.06000	    0.94000;
	79	 1	 65.34	 32.00	 0.0	 20.0	 1	    0.99890	   -6.18841	 138.0	 1	    1.06000	    0.94000;
	80	 2	 217.81	 26.00	 0.0	 0.0	 1	    1.02295	   -2.29352	 138.0	 1	    1.06000	    0.94000;
	81	 1	 0.00	 0.00	 0.0	 0.0	 1	    0.94754	    2.46625	 345.0	 1	    1.06000	    0.94000;
	82	 1	 90.47	 27.00	 0.0	 20.0	 1	    0.98486	   -4.01966	 138.0	 1	    1.06000	    0.94000;
	83	 1	 33.51	 10.00	 0.0	 10.0	 1	    1.00127	   -2.09684	 138.0	 1	    1.06000	    0.94000;
	84	 1	 18.43	 7.00	 0.0	 0.0	 1	    1.03392	    1.63051	 138.0	 1	    1.06000	    0.94000;
	85	 2	 40.21	 15.00	 0.0	 0.0	 1	    1.06000	    3.87909	 138.0	 1	    1.06000	    0.94000;
	86	 1	 35.18	 10.00	 0.0	 0.0	 1	    1.04414	   10.94927	 138.0	 1	    1.06000	    0.94000;
	87	 2	 0.00	 0.00	 0.0	 0.0	 1	    1.06000	   26.14511	 161.0	 1	    1.06000	    0.94000;
	88	 1	 80.42	 10.00	 0.0	 0.0	 1	    0.99297	    6.26758	 138.0	 1	    1.06000	    0.94000;
	89	 2	 0.00	 0.00	 0.0	 0.0	 1	    0.96753	   11.44930	 138.0	 1	    1.06000	    0.94000;
	90	 2	 273.10	 42.00	 0.0	 0.0	 1	    0.94157	    0.80333	 138.0	 1	    1.06000	    0.94000;
	91	 2	 10.00	 0.00	 0.0	 0.0	 1	    0.94000	    2.43680	 138.0	 1	    1.06000	    0.94000;
	92	 2	 108.90	 10.00	 0.0	 0.0	 1	    0.94851	    5.63652	 138.0	 1	    1.06000	    0.94000;
	93	 1	 20.11	 7.00	 0.0	 0.0	 1	    0.94160	    2.93945	 138.0	 1	    1.06000	    0.94000;
	94	 1	 50.26	 16.00	 0.0	 0.0	 1	    0.94564	    1.47738	 138.0	 1	    1.06000	    0.94000;
	95	 1	 70.37	 31.00	 0.0	 0.0	 1	    0.94000	   -1.31965	 138.0	 1	    1.06000	    0.94000;
	96	 1	 63.67	 15.00	 0.0	 0.0	 1	    0.96429	   -2.67068	 138.0	 1	    1.06000	    0.94000;
	97	 1	 25.13	 9.00	 0.0	 0.0	 1	    0.98746	   -3.11440	 138.0	 1	    1.06000	    0.94000;
	98	 1	 56.96	 8.00	 0.0	 0.0	 1	    0.98645	   -1.12718	 138.0	 1	    1.06000	    0.94000;
	99	 2	 42.00	 0.00	 0.0	 0.0	 1	    0.95593	    2.98275	 138.0	 1	    1.06000	    0.94000;
	100	 2	 61.99	 18.00	 0.0	 0.0	 1	    0.96670	    6.97431	 138.0	 1	    1.06000	    0.94000;
	101	 1	 36.86	 15.00	 0.0	 0.0	 1	    0.94215	    4.72073	 138.0	 1	    1.06000	    0.94000;
	102	 1	 8.38	 3.00	 0.0	 0.0	 1	    0.94523	    5.13828	 138.0	 1	    1.06000	    0.94000;
	103	 2	 38.54	 16.00	 0.0	 0.0	 1	    0.95066	    1.94553	 138.0	 1	    1.06000	    0.94000;
	104	 2	 63.67	 25.00	 0.0	 0.0	 1	    0.96816	   -5.74210	 138.0	 1	    1.06000	    0.94000;
	105	 2	 51.94	 26.00	 0.0	 20.0	 1	    0.96068	   -8.03630	 138.0	 1	    1.06000	    0.94000;
	106	 1	 72.04	 16.00	 0.0	 0.0	 1	    0.94196	   -8.31127	 138.0	 1	    1.06000	    0.94000;
	107	 2	 83.77	 12.00	 0.0	 6.0	 1	    0.94591	  -13.44555	 138.0	 1	    1.06000	    0.94000;
	108	 1	 3.35	 1.00	 0.0	 0.0	 1	    0.95500	  -11.21447	 138.0	 1	    1.06000	    0.94000;
	109	 1	 13.40	 3.00	 0.0	 0.0	 1	    0.95394	  -12.46094	 138.0	 1	    1.06000	    0.94000;
	110	 2	 65.34	 30.00	 0.0	 6.0	 1	    0.95808	  -15.13936	 138.0	 1	    1.06000	    0.94000;
	111	 2	 0.00	 0.00	 0.0	 0.0	 1	    0.95808	  -15.13946	 138.0	 1	    1.06000	    0.94000;
	112	 2	 113.93	 13.00	 0.0	 0.0	 1	    0.94000	  -20.14259	 138.0	 1	    1.06000	    0.94000;
	113	 2	 6.00	 0.00	 0.0	 0.0	 1	    0.94000	   10.47183	 138.0	 1	    1.06000	    0.94000;
	114	 1	 13.40	 3.00	 0.0	 0.0	 1	    1.01576	    7.26360	 138.0	 1	    1.06000	    0.94000;
	115	 1	 36.86	 7.00	 0.0	 0.0	 1	    1.01995	    7.10382	 138.0	 1	    1.06000	    0.94000;
	116	 2	 184.00	 0.00	 0.0	 0.0	 1	    0.94000	    5.06589	 138.0	 1	    1.06000	    0.94000;
	117	 1	 33.51	 8.00	 0.0	 0.0	 1	    1.02417	   18.96277	 138.0	 1	    1.06000	    0.94000;
	118	 1	 55.29	 15.00	 0.0	 0.0	 1	    0.94012	  -13.23711	 138.0	 1	    1.06000	    0.94000;
];

%% generator data
%	bus	Pg	Qg	Qmax	Qmin	Vg	mBase	status	Pmax	Pmin	Pc1	Pc2	Qc1min	Qc1max	Qc2min	Qc2max	ramp_agc	ramp_10	ramp_30	ramp_q	apf
mpc.gen = [
	1	 0.0	 97.302	 117.6	 -117.6	 1.06	 100.0	 1	 0	 0.0	 0.0	 0.0	 0.0	 0.0	 0.0	 0.0	 0.0	 0.0	 0.0	 0.0	 0.0; % SYNC
	4	 0.0	 180.288	 300.0	 -300.0	 1.06	 100.0	 1	 0	 0.0	 0.0	 0.0	 0.0	 0.0	 0.0	 0.0	 0.0	 0.0	 0.0	 0.0	 0.0; % SYNC
	6	 0.0	 96.052	 115.2	 -115.2	 1.06	 100.0	 1	 0	 0.0	 0.0	 0.0	 0.0	 0.0	 0.0	 0.0	 0.0	 0.0	 0.0	 0.0	 0.0; % SYNC
	8	 0.0	 -2.576	 300.0	 -300.0	 1.00637	 100.0	 1	 0	 0.0	 0.0	 0.0	 0.0	 0.0	 0.0	 0.0	 0.0	 0.0	 0.0	 0.0	 0.0; % SYNC
	10	 709.827	 15.682	 401.0	 -401.0	 1.03644	 100.0	 1	 802	 0.0	 0.0	 0.0	 0.0	 0.0	 0.0	 0.0	 0.0	 0.0	 0.0	 0.0	 0.0; % NG
	12	 672.008	 -13.54	 380.0	 -380.0	 1.04422	 100.0	 1	 759	 0.0	 0.0	 0.0	 0.0	 0.0	 0.0	 0.0	 0.0	 0.0	 0.0	 0.0	 0.0; % NG
	15	 0.0	 -87.036	 100.8	 -100.8	 0.95318	 100.0	 1	 0	 0.0	 0.0	 0.0	 0.0	 0.0	 0.0	 0.0	 0.0	 0.0	 0.0	 0.0	 0.0; % SYNC
	18	 0.0	 93.094	 111.6	 -111.6	 0.98364	 100.0	 1	 0	 0.0	 0.0	 0.0	 0.0	 0.0	 0.0	 0.0	 0.0	 0.0	 0.0	 0.0	 0.0; % SYNC
	19	 0.0	 81.423	 97.2	 -97.2	 0.98035	 100.0	 1	 0	 0.0	 0.0	 0.0	 0.0	 0.0	 0.0	 0.0	 0.0	 0.0	 0.0	 0.0	 0.0; % SYNC
	24	 0.0	 31.6	 300.0	 -300.0	 1.03601	 100.0	 1	 0	 0.0	 0.0	 0.0	 0.0	 0.0	 0.0	 0.0	 0.0	 0.0	 0.0	 0.0	 0.0; % SYNC
	25	 0.0	 153.6	 153.6	 -153.6	 1.04308	 100.0	 1	 212	 0.0	 0.0	 0.0	 0.0	 0.0	 0.0	 0.0	 0.0	 0.0	 0.0	 0.0	 0.0; % NG
	26	 389.591	 -217.138	 243.0	 -243.0	 0.94	 100.0	 1	 441	 0.0	 0.0	 0.0	 0.0	 0.0	 0.0	 0.0	 0.0	 0.0	 0.0	 0.0	 0.0; % NG
	27	 0.0	 234.511	 300.0	 -300.0	 1.06	 100.0	 1	 0	 0.0	 0.0	 0.0	 0.0	 0.0	 0.0	 0.0	 0.0	 0.0	 0.0	 0.0	 0.0; % SYNC
	31	 425.843	 -23.591	 284.0	 -284.0	 1.00819	 100.0	 1	 568	 0.0	 0.0	 0.0	 0.0	 0.0	 0.0	 0.0	 0.0	 0.0	 0.0	 0.0	 0.0; % NG
	32	 0.0	 -76.367	 103.2	 -103.2	 0.99443	 100.0	 1	 0	 0.0	 0.0	 0.0	 0.0	 0.0	 0.0	 0.0	 0.0	 0.0	 0.0	 0.0	 0.0; % SYNC
	34	 0.0	 139.834	 175.2	 -175.2	 1.06	 100.0	 1	 0	 0.0	 0.0	 0.0	 0.0	 0.0	 0.0	 0.0	 0.0	 0.0	 0.0	 0.0	 0.0; % SYNC
	36	 0.0	 60.51	 74.4	 -74.4	 1.06	 100.0	 1	 0	 0.0	 0.0	 0.0	 0.0	 0.0	 0.0	 0.0	 0.0	 0.0	 0.0	 0.0	 0.0; % SYNC
	40	 0.0	 165.329	 300.0	 -300.0	 1.05705	 100.0	 1	 0	 0.0	 0.0	 0.0	 0.0	 0.0	 0.0	 0.0	 0.0	 0.0	 0.0	 0.0	 0.0; % SYNC
	42	 0.0	 -1.512	 300.0	 -300.0	 1.00942	 100.0	 1	 0	 0.0	 0.0	 0.0	 0.0	 0.0	 0.0	 0.0	 0.0	 0.0	 0.0	 0.0	 0.0; % SYNC
	46	 308.877	 -20.13	 253.0	 -253.0	 1.06	 100.0	 1	 505	 0.0	 0.0	 0.0	 0.0	 0.0	 0.0	 0.0	 0.0	 0.0	 0.0	 0.0	 0.0; % PEL
	49	 180.044	 101.425	 289.2	 -289.2	 1.04982	 100.0	 1	 242	 0.0	 0.0	 0.0	 0.0	 0.0	 0.0	 0.0	 0.0	 0.0	 0.0	 0.0	 0.0; % NG
	54	 400.81	 20.888	 204.0	 -204.0	 1.0441	 100.0	 1	 407	 0.0	 0.0	 0.0	 0.0	 0.0	 0.0	 0.0	 0.0	 0.0	 0.0	 0.0	 0.0; % NG
	55	 0.0	 32.4	 32.4	 -32.4	 1.04019	 100.0	 1	 0	 0.0	 0.0	 0.0	 0.0	 0.0	 0.0	 0.0	 0.0	 0.0	 0.0	 0.0	 0.0; % SYNC
	56	 0.0	 11.105	 24.0	 -24.0	 1.04011	 100.0	 1	 0	 0.0	 0.0	 0.0	 0.0	 0.0	 0.0	 0.0	 0.0	 0.0	 0.0	 0.0	 0.0; % SYNC
	59	 709.293	 114.403	 390.0	 -390.0	 1.06	 100.0	 1	 780	 0.0	 0.0	 0.0	 0.0	 0.0	 0.0	 0.0	 0.0	 0.0	 0.0	 0.0	 0.0; % NG
	61	 0.0	 118.999	 119.0	 -119.0	 1.05072	 100.0	 1	 237	 0.0	 0.0	 0.0	 0.0	 0.0	 0.0	 0.0	 0.0	 0.0	 0.0	 0.0	 0.0; % NG
	62	 0.0	 19.997	 20.0	 -20.0	 1.04694	 100.0	 1	 0	 0.0	 0.0	 0.0	 0.0	 0.0	 0.0	 0.0	 0.0	 0.0	 0.0	 0.0	 0.0; % SYNC
	65	 1156.0	 -309.204	 578.0	 -578.0	 0.95543	 100.0	 1	 1156	 0.0	 0.0	 0.0	 0.0	 0.0	 0.0	 0.0	 0.0	 0.0	 0.0	 0.0	 0.0; % COW
	66	 139.0	 125.435	 200.0	 -70.0	 1.06	 100.0	 1	 139	 0.0	 0.0	 0.0	 0.0	 0.0	 0.0	 0.0	 0.0	 0.0	 0.0	 0.0	 0.0; % COW
	69	 39.528	 -192.201	 300.0	 -300.0	 0.98994	 100.0	 1	 113	 0.0	 0.0	 0.0	 0.0	 0.0	 0.0	 0.0	 0.0	 0.0	 0.0	 0.0	 0.0; % COW
	70	 0.0	 266.785	 316.8	 -316.8	 1.06	 100.0	 1	 0	 0.0	 0.0	 0.0	 0.0	 0.0	 0.0	 0.0	 0.0	 0.0	 0.0	 0.0	 0.0; % SYNC
	72	 0.0	 17.127	 100.0	 -100.0	 1.06	 100.0	 1	 0	 0.0	 0.0	 0.0	 0.0	 0.0	 0.0	 0.0	 0.0	 0.0	 0.0	 0.0	 0.0; % SYNC
	73	 0.0	 -0.425	 100.0	 -100.0	 1.05961	 100.0	 1	 0	 0.0	 0.0	 0.0	 0.0	 0.0	 0.0	 0.0	 0.0	 0.0	 0.0	 0.0	 0.0; % SYNC
	74	 0.0	 -73.583	 86.4	 -86.4	 0.94	 100.0	 1	 0	 0.0	 0.0	 0.0	 0.0	 0.0	 0.0	 0.0	 0.0	 0.0	 0.0	 0.0	 0.0; % SYNC
	76	 0.0	 33.363	 40.8	 -40.8	 0.94	 100.0	 1	 0	 0.0	 0.0	 0.0	 0.0	 0.0	 0.0	 0.0	 0.0	 0.0	 0.0	 0.0	 0.0; % SYNC
	77	 0.0	 171.333	 207.6	 -207.6	 1.00421	 100.0	 1	 0	 0.0	 0.0	 0.0	 0.0	 0.0	 0.0	 0.0	 0.0	 0.0	 0.0	 0.0	 0.0; % SYNC
	80	 281.448	 207.329	 255.0	 -235.2	 1.02295	 100.0	 1	 305	 0.0	 0.0	 0.0	 0.0	 0.0	 0.0	 0.0	 0.0	 0.0	 0.0	 0.0	 0.0; % COW
	85	 0.0	 234.945	 277.2	 -277.2	 1.06	 100.0	 1	 0	 0.0	 0.0	 0.0	 0.0	 0.0	 0.0	 0.0	 0.0	 0.0	 0.0	 0.0	 0.0; % SYNC
	87	 140.91	 5.049	 80.0	 -80.0	 1.06	 100.0	 1	 159	 0.0	 0.0	 0.0	 0.0	 0.0	 0.0	 0.0	 0.0	 0.0	 0.0	 0.0	 0.0; % NG
	89	 684.621	 -115.049	 574.0	 -574.0	 0.96753	 100.0	 1	 1148	 0.0	 0.0	 0.0	 0.0	 0.0	 0.0	 0.0	 0.0	 0.0	 0.0	 0.0	 0.0; % COW
	90	 0.0	 92.825	 300.0	 -300.0	 0.94157	 100.0	 1	 0	 0.0	 0.0	 0.0	 0.0	 0.0	 0.0	 0.0	 0.0	 0.0	 0.0	 0.0	 0.0; % SYNC
	91	 0.0	 -5.869	 100.0	 -100.0	 0.94	 100.0	 1	 0	 0.0	 0.0	 0.0	 0.0	 0.0	 0.0	 0.0	 0.0	 0.0	 0.0	 0.0	 0.0; % SYNC
	92	 0.0	 -5.998	 9.0	 -7.2	 0.94851	 100.0	 1	 0	 0.0	 0.0	 0.0	 0.0	 0.0	 0.0	 0.0	 0.0	 0.0	 0.0	 0.0	 0.0; % SYNC
	99	 0.0	 -33.146	 100.0	 -100.0	 0.95593	 100.0	 1	 0	 0.0	 0.0	 0.0	 0.0	 0.0	 0.0	 0.0	 0.0	 0.0	 0.0	 0.0	 0.0; % SYNC
	100	 753.37	 -33.232	 458.0	 -458.0	 0.9667	 100.0	 1	 915	 0.0	 0.0	 0.0	 0.0	 0.0	 0.0	 0.0	 0.0	 0.0	 0.0	 0.0	 0.0; % COW
	103	 195.515	 -35.177	 168.0	 -168.0	 0.95066	 100.0	 1	 336	 0.0	 0.0	 0.0	 0.0	 0.0	 0.0	 0.0	 0.0	 0.0	 0.0	 0.0	 0.0; % NG
	104	 0.0	 84.0	 84.0	 -84.0	 0.96816	 100.0	 1	 0	 0.0	 0.0	 0.0	 0.0	 0.0	 0.0	 0.0	 0.0	 0.0	 0.0	 0.0	 0.0; % SYNC
	105	 0.0	 62.4	 62.4	 -62.4	 0.96068	 100.0	 1	 0	 0.0	 0.0	 0.0	 0.0	 0.0	 0.0	 0.0	 0.0	 0.0	 0.0	 0.0	 0.0; % SYNC
	107	 0.0	 25.243	 200.0	 -200.0	 0.94591	 100.0	 1	 0	 0.0	 0.0	 0.0	 0.0	 0.0	 0.0	 0.0	 0.0	 0.0	 0.0	 0.0	 0.0; % SYNC
	110	 0.0	 83.782	 84.0	 -84.0	 0.95808	 100.0	 1	 0	 0.0	 0.0	 0.0	 0.0	 0.0	 0.0	 0.0	 0.0	 0.0	 0.0	 0.0	 0.0; % SYNC
	111	 0.0	 -0.911	 95.0	 -95.0	 0.95808	 100.0	 1	 189	 0.0	 0.0	 0.0	 0.0	 0.0	 0.0	 0.0	 0.0	 0.0	 0.0	 0.0	 0.0; % PEL
	112	 0.0	 33.043	 1000.0	 -100.0	 0.94	 100.0	 1	 0	 0.0	 0.0	 0.0	 0.0	 0.0	 0.0	 0.0	 0.0	 0.0	 0.0	 0.0	 0.0; % SYNC
	113	 0.0	 -130.057	 200.0	 -151.2	 0.94	 100.0	 1	 0	 0.0	 0.0	 0.0	 0.0	 0.0	 0.0	 0.0	 0.0	 0.0	 0.0	 0.0	 0.0; % SYNC
	116	 0.0	 -36.385	 1000.0	 -1000.0	 0.94	 100.0	 1	 0	 0.0	 0.0	 0.0	 0.0	 0.0	 0.0	 0.0	 0.0	 0.0	 0.0	 0.0	 0.0; % SYNC
];

%% generator cost data
%	2	startup	shutdown	n	c(n-1)	...	c0
mpc.gencost = [
	2	 0.0	 0.0	 3	   0.000000	   0.000000	   0.000000; % SYNC
	2	 0.0	 0.0	 3	   0.000000	   0.000000	   0.000000; % SYNC
	2	 0.0	 0.0	 3	   0.000000	   0.000000	   0.000000; % SYNC
	2	 0.0	 0.0	 3	   0.000000	   0.000000	   0.000000; % SYNC
	2	 0.0	 0.0	 3	   0.000000	   0.850237	   0.000000; % NG
	2	 0.0	 0.0	 3	   0.000000	   1.272544	   0.000000; % NG
	2	 0.0	 0.0	 3	   0.000000	   0.000000	   0.000000; % SYNC
	2	 0.0	 0.0	 3	   0.000000	   0.000000	   0.000000; % SYNC
	2	 0.0	 0.0	 3	   0.000000	   0.000000	   0.000000; % SYNC
	2	 0.0	 0.0	 3	   0.000000	   0.000000	   0.000000; % SYNC
	2	 0.0	 0.0	 3	   0.000000	   1.364363	   0.000000; % NG
	2	 0.0	 0.0	 3	   0.000000	   0.789065	   0.000000; % NG
	2	 0.0	 0.0	 3	   0.000000	   0.000000	   0.000000; % SYNC
	2	 0.0	 0.0	 3	   0.000000	   0.964324	   0.000000; % NG
	2	 0.0	 0.0	 3	   0.000000	   0.000000	   0.000000; % SYNC
	2	 0.0	 0.0	 3	   0.000000	   0.000000	   0.000000; % SYNC
	2	 0.0	 0.0	 3	   0.000000	   0.000000	   0.000000; % SYNC
	2	 0.0	 0.0	 3	   0.000000	   0.000000	   0.000000; % SYNC
	2	 0.0	 0.0	 3	   0.000000	   0.000000	   0.000000; % SYNC
	2	 0.0	 0.0	 3	   0.000000	   7.068674	   0.000000; % PEL
	2	 0.0	 0.0	 3	   0.000000	   1.247074	   0.000000; % NG
	2	 0.0	 0.0	 3	   0.000000	   0.973549	   0.000000; % NG
	2	 0.0	 0.0	 3	   0.000000	   0.000000	   0.000000; % SYNC
	2	 0.0	 0.0	 3	   0.000000	   0.000000	   0.000000; % SYNC
	2	 0.0	 0.0	 3	   0.000000	   1.146054	   0.000000; % NG
	2	 0.0	 0.0	 3	   0.000000	   1.392479	   0.000000; % NG
	2	 0.0	 0.0	 3	   0.000000	   0.000000	   0.000000; % SYNC
	2	 0.0	 0.0	 3	   0.000000	   0.743877	   0.000000; % COW
	2	 0.0	 0.0	 3	   0.000000	   0.814033	   0.000000; % COW
	2	 0.0	 0.0	 3	   0.000000	   0.585556	   0.000000; % COW
	2	 0.0	 0.0	 3	   0.000000	   0.000000	   0.000000; % SYNC
	2	 0.0	 0.0	 3	   0.000000	   0.000000	   0.000000; % SYNC
	2	 0.0	 0.0	 3	   0.000000	   0.000000	   0.000000; % SYNC
	2	 0.0	 0.0	 3	   0.000000	   0.000000	   0.000000; % SYNC
	2	 0.0	 0.0	 3	   0.000000	   0.000000	   0.000000; % SYNC
	2	 0.0	 0.0	 3	   0.000000	   0.000000	   0.000000; % SYNC
	2	 0.0	 0.0	 3	   0.000000	   0.761443	   0.000000; % COW
	2	 0.0	 0.0	 3	   0.000000	   0.000000	   0.000000; % SYNC
	2	 0.0	 0.0	 3	   0.000000	   1.237380	   0.000000; % NG
	2	 0.0	 0.0	 3	   0.000000	   0.368515	   0.000000; % COW
	2	 0.0	 0.0	 3	   0.000000	   0.000000	   0.000000; % SYNC
	2	 0.0	 0.0	 3	   0.000000	   0.000000	   0.000000; % SYNC
	2	 0.0	 0.0	 3	   0.000000	   0.000000	   0.000000; % SYNC
	2	 0.0	 0.0	 3	   0.000000	   0.000000	   0.000000; % SYNC
	2	 0.0	 0.0	 3	   0.000000	   0.997029	   0.000000; % COW
	2	 0.0	 0.0	 3	   0.000000	   1.381617	   0.000000; % NG
	2	 0.0	 0.0	 3	   0.000000	   0.000000	   0.000000; % SYNC
	2	 0.0	 0.0	 3	   0.000000	   0.000000	   0.000000; % SYNC
	2	 0.0	 0.0	 3	   0.000000	   0.000000	   0.000000; % SYNC
	2	 0.0	 0.0	 3	   0.000000	   0.000000	   0.000000; % SYNC
	2	 0.0	 0.0	 3	   0.000000	   6.953394	   0.000000; % PEL
	2	 0.0	 0.0	 3	   0.000000	   0.000000	   0.000000; % SYNC
	2	 0.0	 0.0	 3	   0.000000	   0.000000	   0.000000; % SYNC
	2	 0.0	 0.0	 3	   0.000000	   0.000000	   0.000000; % SYNC
];

%% branch data
%	fbus	tbus	r	x	b	rateA	rateB	rateC	ratio	angle	status	angmin	angmax
mpc.branch = [
	1	 2	 0.0303	 0.0999	 0.0254	 151.0	 151.0	 151.0	 0.0	 0.0	 1	 -30.0	 30.0;
	1	 3	 0.0129	 0.0424	 0.01082	 151.0	 151.0	 151.0	 0.0	 0.0	 1	 -30.0	 30.0;
	4	 5	 0.00176	 0.00798	 0.0021	 176.0	 176.0	 176.0	 0.0	 0.0	 1	 -30.0	 30.0;
	3	 5	 0.0241	 0.108	 0.0284	 175.0	 175.0	 175.0	 0.0	 0.0	 1	 -30.0	 30.0;
	5	 6	 0.0119	 0.054	 0.01426	 176.0	 176.0	 176.0	 0.0	 0.0	 1	 -30.0	 30.0;
	6	 7	 0.00459	 0.0208	 0.0055	 176.0	 176.0	 176.0	 0.0	 0.0	 1	 -30.0	 30.0;
	8	 9	 0.00244	 0.0305	 1.162	 711.0	 711.0	 711.0	 0.0	 0.0	 1	 -30.0	 30.0;
	8	 5	 0.0	 0.0267	 0.0	 1099.0	 1099.0	 1099.0	 0.985	 0.0	 1	 -30.0	 30.0;
	9	 10	 0.00258	 0.0322	 1.23	 710.0	 710.0	 710.0	 0.0	 0.0	 1	 -30.0	 30.0;
	4	 11	 0.0209	 0.0688	 0.01748	 151.0	 151.0	 151.0	 0.0	 0.0	 1	 -30.0	 30.0;
	5	 11	 0.0203	 0.0682	 0.01738	 152.0	 152.0	 152.0	 0.0	 0.0	 1	 -30.0	 30.0;
	11	 12	 0.00595	 0.0196	 0.00502	 151.0	 151.0	 151.0	 0.0	 0.0	 1	 -30.0	 30.0;
	2	 12	 0.0187	 0.0616	 0.01572	 151.0	 151.0	 151.0	 0.0	 0.0	 1	 -30.0	 30.0;
	3	 12	 0.0484	 0.16	 0.0406	 151.0	 151.0	 151.0	 0.0	 0.0	 1	 -30.0	 30.0;
	7	 12	 0.00862	 0.034	 0.00874	 164.0	 164.0	 164.0	 0.0	 0.0	 1	 -30.0	 30.0;
	11	 13	 0.02225	 0.0731	 0.01876	 151.0	 151.0	 151.0	 0.0	 0.0	 1	 -30.0	 30.0;
	12	 14	 0.0215	 0.0707	 0.01816	 151.0	 151.0	 151.0	 0.0	 0.0	 1	 -30.0	 30.0;
	13	 15	 0.0744	 0.2444	 0.06268	 115.0	 115.0	 115.0	 0.0	 0.0	 1	 -30.0	 30.0;
	14	 15	 0.0595	 0.195	 0.0502	 144.0	 144.0	 144.0	 0.0	 0.0	 1	 -30.0	 30.0;
	12	 16	 0.0212	 0.0834	 0.0214	 164.0	 164.0	 164.0	 0.0	 0.0	 1	 -30.0	 30.0;
	15	 17	 0.0132	 0.0437	 0.0444	 151.0	 151.0	 151.0	 0.0	 0.0	 1	 -30.0	 30.0;
	16	 17	 0.0454	 0.1801	 0.0466	 158.0	 158.0	 158.0	 0.0	 0.0	 1	 -30.0	 30.0;
	17	 18	 0.0123	 0.0505	 0.01298	 167.0	 167.0	 167.0	 0.0	 0.0	 1	 -30.0	 30.0;
	18	 19	 0.01119	 0.0493	 0.01142	 173.0	 173.0	 173.0	 0.0	 0.0	 1	 -30.0	 30.0;
	19	 20	 0.0252	 0.117	 0.0298	 178.0	 178.0	 178.0	 0.0	 0.0	 1	 -30.0	 30.0;
	15	 19	 0.012	 0.0394	 0.0101	 151.0	 151.0	 151.0	 0.0	 0.0	 1	 -30.0	 30.0;
	20	 21	 0.0183	 0.0849	 0.0216	 177.0	 177.0	 177.0	 0.0	 0.0	 1	 -30.0	 30.0;
	21	 22	 0.0209	 0.097	 0.0246	 178.0	 178.0	 178.0	 0.0	 0.0	 1	 -30.0	 30.0;
	22	 23	 0.0342	 0.159	 0.0404	 178.0	 178.0	 178.0	 0.0	 0.0	 1	 -30.0	 30.0;
	23	 24	 0.0135	 0.0492	 0.0498	 158.0	 158.0	 158.0	 0.0	 0.0	 1	 -30.0	 30.0;
	23	 25	 0.0156	 0.08	 0.0864	 186.0	 186.0	 186.0	 0.0	 0.0	 1	 -30.0	 30.0;
	26	 25	 0.0	 0.0382	 0.0	 768.0	 768.0	 768.0	 0.96	 0.0	 1	 -30.0	 30.0;
	25	 27	 0.0318	 0.163	 0.1764	 177.0	 177.0	 177.0	 0.0	 0.0	 1	 -30.0	 30.0;
	27	 28	 0.01913	 0.0855	 0.0216	 174.0	 174.0	 174.0	 0.0	 0.0	 1	 -30.0	 30.0;
	28	 29	 0.0237	 0.0943	 0.0238	 165.0	 165.0	 165.0	 0.0	 0.0	 1	 -30.0	 30.0;
	30	 17	 0.0	 0.0388	 0.0	 756.0	 756.0	 756.0	 0.96	 0.0	 1	 -30.0	 30.0;
	8	 30	 0.00431	 0.0504	 0.514	 580.0	 580.0	 580.0	 0.0	 0.0	 1	 -30.0	 30.0;
	26	 30	 0.00799	 0.086	 0.908	 340.0	 340.0	 340.0	 0.0	 0.0	 1	 -30.0	 30.0;
	17	 31	 0.0474	 0.1563	 0.0399	 151.0	 151.0	 151.0	 0.0	 0.0	 1	 -30.0	 30.0;
	29	 31	 0.0108	 0.0331	 0.0083	 146.0	 146.0	 146.0	 0.0	 0.0	 1	 -30.0	 30.0;
	23	 32	 0.0317	 0.1153	 0.1173	 158.0	 158.0	 158.0	 0.0	 0.0	 1	 -30.0	 30.0;
	31	 32	 0.0298	 0.0985	 0.0251	 151.0	 151.0	 151.0	 0.0	 0.0	 1	 -30.0	 30.0;
	27	 32	 0.0229	 0.0755	 0.01926	 151.0	 151.0	 151.0	 0.0	 0.0	 1	 -30.0	 30.0;
	15	 33	 0.038	 0.1244	 0.03194	 150.0	 150.0	 150.0	 0.0	 0.0	 1	 -30.0	 30.0;
	19	 34	 0.0752	 0.247	 0.0632	 114.0	 114.0	 114.0	 0.0	 0.0	 1	 -30.0	 30.0;
	35	 36	 0.00224	 0.0102	 0.00268	 176.0	 176.0	 176.0	 0.0	 0.0	 1	 -30.0	 30.0;
	35	 37	 0.011	 0.0497	 0.01318	 175.0	 175.0	 175.0	 0.0	 0.0	 1	 -30.0	 30.0;
	33	 37	 0.0415	 0.142	 0.0366	 154.0	 154.0	 154.0	 0.0	 0.0	 1	 -30.0	 30.0;
	34	 36	 0.00871	 0.0268	 0.00568	 146.0	 146.0	 146.0	 0.0	 0.0	 1	 -30.0	 30.0;
	34	 37	 0.00256	 0.0094	 0.00984	 159.0	 159.0	 159.0	 0.0	 0.0	 1	 -30.0	 30.0;
	38	 37	 0.0	 0.0375	 0.0	 783.0	 783.0	 783.0	 0.935	 0.0	 1	 -30.0	 30.0;
	37	 39	 0.0321	 0.106	 0.027	 151.0	 151.0	 151.0	 0.0	 0.0	 1	 -30.0	 30.0;
	37	 40	 0.0593	 0.168	 0.042	 140.0	 140.0	 140.0	 0.0	 0.0	 1	 -30.0	 30.0;
	30	 38	 0.00464	 0.054	 0.422	 542.0	 542.0	 542.0	 0.0	 0.0	 1	 -30.0	 30.0;
	39	 40	 0.0184	 0.0605	 0.01552	 151.0	 151.0	 151.0	 0.0	 0.0	 1	 -30.0	 30.0;
	40	 41	 0.0145	 0.0487	 0.01222	 152.0	 152.0	 152.0	 0.0	 0.0	 1	 -30.0	 30.0;
	40	 42	 0.0555	 0.183	 0.0466	 151.0	 151.0	 151.0	 0.0	 0.0	 1	 -30.0	 30.0;
	41	 42	 0.041	 0.135	 0.0344	 151.0	 151.0	 151.0	 0.0	 0.0	 1	 -30.0	 30.0;
	43	 44	 0.0608	 0.2454	 0.06068	 117.0	 117.0	 117.0	 0.0	 0.0	 1	 -30.0	 30.0;
	34	 43	 0.0413	 0.1681	 0.04226	 167.0	 167.0	 167.0	 0.0	 0.0	 1	 -30.0	 30.0;
	44	 45	 0.0224	 0.0901	 0.0224	 166.0	 166.0	 166.0	 0.0	 0.0	 1	 -30.0	 30.0;
	45	 46	 0.04	 0.1356	 0.0332	 153.0	 153.0	 153.0	 0.0	 0.0	 1	 -30.0	 30.0;
	46	 47	 0.038	 0.127	 0.0316	 152.0	 152.0	 152.0	 0.0	 0.0	 1	 -30.0	 30.0;
	46	 48	 0.0601	 0.189	 0.0472	 148.0	 148.0	 148.0	 0.0	 0.0	 1	 -30.0	 30.0;
	47	 49	 0.0191	 0.0625	 0.01604	 150.0	 150.0	 150.0	 0.0	 0.0	 1	 -30.0	 30.0;
	42	 49	 0.0715	 0.323	 0.086	 89.0	 89.0	 89.0	 0.0	 0.0	 1	 -30.0	 30.0;
	42	 49	 0.0715	 0.323	 0.086	 89.0	 89.0	 89.0	 0.0	 0.0	 1	 -30.0	 30.0;
	45	 49	 0.0684	 0.186	 0.0444	 138.0	 138.0	 138.0	 0.0	 0.0	 1	 -30.0	 30.0;
	48	 49	 0.0179	 0.0505	 0.01258	 140.0	 140.0	 140.0	 0.0	 0.0	 1	 -30.0	 30.0;
	49	 50	 0.0267	 0.0752	 0.01874	 140.0	 140.0	 140.0	 0.0	 0.0	 1	 -30.0	 30.0;
	49	 51	 0.0486	 0.137	 0.0342	 140.0	 140.0	 140.0	 0.0	 0.0	 1	 -30.0	 30.0;
	51	 52	 0.0203	 0.0588	 0.01396	 142.0	 142.0	 142.0	 0.0	 0.0	 1	 -30.0	 30.0;
	52	 53	 0.0405	 0.1635	 0.04058	 166.0	 166.0	 166.0	 0.0	 0.0	 1	 -30.0	 30.0;
	53	 54	 0.0263	 0.122	 0.031	 177.0	 177.0	 177.0	 0.0	 0.0	 1	 -30.0	 30.0;
	49	 54	 0.073	 0.289	 0.0738	 99.0	 99.0	 99.0	 0.0	 0.0	 1	 -30.0	 30.0;
	49	 54	 0.0869	 0.291	 0.073	 97.0	 97.0	 97.0	 0.0	 0.0	 1	 -30.0	 30.0;
	54	 55	 0.0169	 0.0707	 0.0202	 169.0	 169.0	 169.0	 0.0	 0.0	 1	 -30.0	 30.0;
	54	 56	 0.00275	 0.00955	 0.00732	 155.0	 155.0	 155.0	 0.0	 0.0	 1	 -30.0	 30.0;
	55	 56	 0.00488	 0.0151	 0.00374	 146.0	 146.0	 146.0	 0.0	 0.0	 1	 -30.0	 30.0;
	56	 57	 0.0343	 0.0966	 0.0242	 140.0	 140.0	 140.0	 0.0	 0.0	 1	 -30.0	 30.0;
	50	 57	 0.0474	 0.134	 0.0332	 140.0	 140.0	 140.0	 0.0	 0.0	 1	 -30.0	 30.0;
	56	 58	 0.0343	 0.0966	 0.0242	 140.0	 140.0	 140.0	 0.0	 0.0	 1	 -30.0	 30.0;
	51	 58	 0.0255	 0.0719	 0.01788	 140.0	 140.0	 140.0	 0.0	 0.0	 1	 -30.0	 30.0;
	54	 59	 0.0503	 0.2293	 0.0598	 125.0	 125.0	 125.0	 0.0	 0.0	 1	 -30.0	 30.0;
	56	 59	 0.0825	 0.251	 0.0569	 112.0	 112.0	 112.0	 0.0	 0.0	 1	 -30.0	 30.0;
	56	 59	 0.0803	 0.239	 0.0536	 117.0	 117.0	 117.0	 0.0	 0.0	 1	 -30.0	 30.0;
	55	 59	 0.04739	 0.2158	 0.05646	 133.0	 133.0	 133.0	 0.0	 0.0	 1	 -30.0	 30.0;
	59	 60	 0.0317	 0.145	 0.0376	 176.0	 176.0	 176.0	 0.0	 0.0	 1	 -30.0	 30.0;
	59	 61	 0.0328	 0.15	 0.0388	 176.0	 176.0	 176.0	 0.0	 0.0	 1	 -30.0	 30.0;
	60	 61	 0.00264	 0.0135	 0.01456	 186.0	 186.0	 186.0	 0.0	 0.0	 1	 -30.0	 30.0;
	60	 62	 0.0123	 0.0561	 0.01468	 176.0	 176.0	 176.0	 0.0	 0.0	 1	 -30.0	 30.0;
	61	 62	 0.00824	 0.0376	 0.0098	 176.0	 176.0	 176.0	 0.0	 0.0	 1	 -30.0	 30.0;
	63	 59	 0.0	 0.0386	 0.0	 760.0	 760.0	 760.0	 0.96	 0.0	 1	 -30.0	 30.0;
	63	 64	 0.00172	 0.02	 0.216	 687.0	 687.0	 687.0	 0.0	 0.0	 1	 -30.0	 30.0;
	64	 61	 0.0	 0.0268	 0.0	 1095.0	 1095.0	 1095.0	 0.985	 0.0	 1	 -30.0	 30.0;
	38	 65	 0.00901	 0.0986	 1.046	 297.0	 297.0	 297.0	 0.0	 0.0	 1	 -30.0	 30.0;
	64	 65	 0.00269	 0.0302	 0.38	 675.0	 675.0	 675.0	 0.0	 0.0	 1	 -30.0	 30.0;
	49	 66	 0.018	 0.0919	 0.0248	 186.0	 186.0	 186.0	 0.0	 0.0	 1	 -30.0	 30.0;
	49	 66	 0.018	 0.0919	 0.0248	 186.0	 186.0	 186.0	 0.0	 0.0	 1	 -30.0	 30.0;
	62	 66	 0.0482	 0.218	 0.0578	 132.0	 132.0	 132.0	 0.0	 0.0	 1	 -30.0	 30.0;
	62	 67	 0.0258	 0.117	 0.031	 176.0	 176.0	 176.0	 0.0	 0.0	 1	 -30.0	 30.0;
	65	 66	 0.0	 0.037	 0.0	 793.0	 793.0	 793.0	 0.935	 0.0	 1	 -30.0	 30.0;