%%%%%%%%%%%%%%%%%%%%%%%%%%%%%%%%%%%%%%%%%%%%%%%%%%%%%%%%%%%%%%%%%%%%%%%%%%%
%%%%                                                                  %%%%%
%%%%    IEEE PES Power Grid Library - Optimal Power Flow - v21.07     %%%%%
%%%%          (https://github.com/power-grid-lib/pglib-opf)           %%%%%
%%%%             Benchmark Group - Active Power Increase              %%%%%
%%%%                         29 - July - 2021                         %%%%%
%%%%                                                                  %%%%%
%%%%%%%%%%%%%%%%%%%%%%%%%%%%%%%%%%%%%%%%%%%%%%%%%%%%%%%%%%%%%%%%%%%%%%%%%%%
function mpc = pglib_opf_case179_goc__api
mpc.version = '2';
mpc.baseMVA = 100.0;

%% bus data
%	bus_i	type	Pd	Qd	Gs	Bs	area	Vm	Va	baseKV	zone	Vmax	Vmin
mpc.bus = [
	2	 1	 926.77	 -54.77	 0.0	 0.0	 1	    1.00300	    0.00000	 1.0	 1	    1.10800	    0.89800;
	3	 1	 0.0	 0.0	 0.0	 0.0	 1	    1.00300	    0.00000	 1.0	 1	    1.10800	    0.89800;
	4	 2	 46.71	 0.00	 0.0	 0.0	 1	    1.00300	    0.00000	 1.0	 1	    1.10800	    0.89800;
	5	 1	 1271.04	 -122.37	 0.0	 0.0	 1	    1.00300	    0.00000	 1.0	 1	    1.10800	    0.89800;
	6	 2	 48.57	 0.00	 0.0	 0.0	 1	    1.00300	    0.00000	 1.0	 1	    1.10800	    0.89800;
	7	 1	 0.0	 0.0	 0.0	 -113.0	 1	    1.00300	    0.00000	 1.0	 1	    1.10800	    0.89800;
	8	 1	 113.45	 -54.21	 0.0	 -155.0	 1	    1.00300	    0.00000	 1.0	 1	    1.10800	    0.89800;
	9	 2	 50.00	 0.00	 0.0	 0.0	 1	    1.00300	    0.00000	 1.0	 1	    1.10800	    0.89800;
	10	 1	 171.04	 22.91	 0.0	 0.0	 1	    1.00300	    0.00000	 1.0	 1	    1.10800	    0.89800;
	11	 2	 47.87	 0.00	 0.0	 0.0	 1	    1.00300	    0.00000	 1.0	 1	    1.10800	    0.89800;
	12	 1	 105.15	 65.76	 0.0	 -190.0	 2	    1.00300	    0.00000	 1.0	 1	    1.10800	    0.89800;
	13	 2	 48.55	 0.00	 0.0	 0.0	 2	    1.00300	    0.00000	 1.0	 1	    1.10800	    0.89800;
	14	 1	 0.0	 0.0	 0.0	 -391.0	 2	    1.00300	    0.00000	 1.0	 1	    1.10800	    0.89800;
	15	 2	 46.55	 0.00	 0.0	 0.0	 2	    1.00300	    0.00000	 1.0	 1	    1.10800	    0.89800;
	16	 1	 1103.27	 215.20	 0.0	 -146.0	 2	    1.00300	    0.00000	 1.0	 1	    1.10800	    0.89800;
	17	 1	 1165.64	 4.79	 0.0	 390.0	 1	    1.00300	    0.00000	 1.0	 1	    1.10800	    0.89800;
	18	 2	 51.79	 0.00	 0.0	 0.0	 1	    1.00300	    0.00000	 1.0	 1	    1.10800	    0.89800;
	19	 1	 327.45	 -64.08	 0.0	 -427.0	 2	    1.00300	    0.00000	 1.0	 1	    1.10800	    0.89800;
	20	 1	 0.0	 0.0	 0.0	 0.0	 2	    1.00300	    0.00000	 1.0	 1	    1.10800	    0.89800;
	21	 1	 0.0	 0.0	 0.0	 0.0	 2	    1.00300	    0.00000	 1.0	 1	    1.10800	    0.89800;
	22	 1	 0.0	 0.0	 0.0	 0.0	 2	    1.00300	    0.00000	 1.0	 1	    1.10800	    0.89800;
	23	 1	 0.0	 0.0	 0.0	 0.0	 2	    1.00300	    0.00000	 1.0	 1	    1.10800	    0.89800;
	24	 1	 0.0	 0.0	 0.0	 0.0	 2	    1.00300	    0.00000	 1.0	 1	    1.10800	    0.89800;
	25	 1	 0.0	 0.0	 0.0	 0.0	 2	    1.00300	    0.00000	 1.0	 1	    1.10800	    0.89800;
	26	 1	 0.0	 0.0	 0.0	 0.0	 2	    1.00300	    0.00000	 1.0	 1	    1.10800	    0.89800;
	27	 1	 0.0	 0.0	 0.0	 0.0	 2	    1.00300	    0.00000	 1.0	 1	    1.10800	    0.89800;
	28	 1	 0.0	 0.0	 0.0	 0.0	 1	    1.00300	    0.00000	 1.0	 1	    1.10800	    0.89800;
	29	 1	 0.0	 0.0	 0.0	 0.0	 1	    1.00300	    0.00000	 1.0	 1	    1.10800	    0.89800;
	30	 2	 49.30	 0.00	 0.0	 0.0	 1	    1.00300	    0.00000	 1.0	 1	    1.10800	    0.89800;
	31	 1	 6031.58	 1052.35	 0.0	 0.0	 1	    1.00300	    0.00000	 1.0	 1	    1.10800	    0.89800;
	32	 1	 0.0	 0.0	 0.0	 0.0	 1	    1.00300	    0.00000	 1.0	 1	    1.10800	    0.89800;
	33	 1	 0.0	 0.0	 0.0	 0.0	 1	    1.00300	    0.00000	 1.0	 1	    1.10800	    0.89800;
	34	 1	 4295.00	 703.18	 0.0	 0.0	 1	    1.00300	    0.00000	 1.0	 1	    1.10800	    0.89800;
	35	 2	 45.09	 0.00	 0.0	 0.0	 1	    1.00300	    0.00000	 1.0	 1	    1.10800	    0.89800;
	36	 2	 51.16	 0.00	 0.0	 0.0	 1	    1.00300	    0.00000	 1.0	 1	    1.10800	    0.89800;
	37	 1	 -843.68	 1045.02	 0.0	 912.0	 2	    1.00300	    0.00000	 1.0	 1	    1.10800	    0.89800;
	38	 1	 0.0	 0.0	 0.0	 0.0	 2	    1.00300	    0.00000	 1.0	 1	    1.10800	    0.89800;
	39	 1	 0.0	 0.0	 0.0	 0.0	 2	    1.00300	    0.00000	 1.0	 1	    1.10800	    0.89800;
	40	 2	 51.45	 0.00	 0.0	 0.0	 2	    1.00300	    0.00000	 1.0	 1	    1.10800	    0.89800;
	41	 1	 177.14	 28.00	 0.0	 0.0	 2	    1.00300	    0.00000	 1.0	 1	    1.10800	    0.89800;
	42	 1	 0.0	 0.0	 0.0	 0.0	 2	    1.00300	    0.00000	 1.0	 1	    1.10800	    0.89800;
	43	 2	 49.01	 0.00	 0.0	 0.0	 2	    1.00300	    0.00000	 1.0	 1	    1.10800	    0.89800;
	44	 1	 2787.50	 902.50	 0.0	 430.0	 1	    1.00300	    0.00000	 1.0	 1	    1.10800	    0.89800;
	45	 2	 52.83	 0.00	 0.0	 0.0	 1	    1.00300	    0.00000	 1.0	 1	    1.10800	    0.89800;
	46	 1	 -35.89	 -17.32	 0.0	 0.0	 2	    1.00300	    0.00000	 1.0	 1	    1.10800	    0.89800;
	47	 2	 53.25	 0.00	 0.0	 0.0	 2	    1.00300	    0.00000	 1.0	 1	    1.10800	    0.89800;
	48	 1	 139.70	 24.01	 0.0	 0.0	 2	    1.00300	    0.00000	 1.0	 1	    1.10800	    0.89800;
	49	 1	 0.0	 0.0	 0.0	 -80.0	 2	    1.00300	    0.00000	 1.0	 1	    1.10800	    0.89800;
	50	 1	 437.60	 62.09	 0.0	 0.0	 2	    1.00300	    0.00000	 1.0	 1	    1.10800	    0.89800;
	51	 1	 115.98	 -58.77	 0.0	 0.0	 2	    1.00300	    0.00000	 1.0	 1	    1.10800	    0.89800;
	52	 1	 0.0	 0.0	 0.0	 0.0	 2	    1.00300	    0.00000	 1.0	 1	    1.10800	    0.89800;
	53	 1	 0.0	 0.0	 0.0	 0.0	 2	    1.00300	    0.00000	 1.0	 1	    1.10800	    0.89800;
	54	 1	 188.08	 29.03	 0.0	 0.0	 2	    1.00300	    0.00000	 1.0	 1	    1.10800	    0.89800;
	55	 1	 1084.77	 126.16	 0.0	 0.0	 2	    1.00300	    0.00000	 1.0	 1	    1.10800	    0.89800;
	56	 1	 0.0	 0.0	 0.0	 0.0	 2	    1.00300	    0.00000	 1.0	 1	    1.10800	    0.89800;
	57	 1	 157.80	 24.03	 0.0	 0.0	 2	    1.00300	    0.00000	 1.0	 1	    1.10800	    0.89800;
	58	 1	 150.94	 25.47	 0.0	 0.0	 2	    1.00300	    0.00000	 1.0	 1	    1.10800	    0.89800;
	59	 1	 480.82	 -6.57	 0.0	 0.0	 2	    1.00300	    0.00000	 1.0	 1	    1.10800	    0.89800;
	60	 1	 -1459.73	 1687.42	 0.0	 2146.0	 2	    1.00300	    0.00000	 1.0	 1	    1.10800	    0.89800;
	61	 1	 471.15	 75.27	 0.0	 0.0	 2	    1.00300	    0.00000	 1.0	 1	    1.10800	    0.89800;
	62	 1	 243.69	 18.56	 0.0	 0.0	 2	    1.00300	    0.00000	 1.0	 1	    1.10800	    0.89800;
	63	 1	 -69.23	 30.32	 0.0	 -108.0	 2	    1.00300	    0.00000	 1.0	 1	    1.10800	    0.89800;
	64	 1	 0.0	 0.0	 0.0	 0.0	 2	    1.00300	    0.00000	 1.0	 1	    1.10800	    0.89800;
	65	 2	 46.97	 0.00	 0.0	 0.0	 1	    1.00300	    0.00000	 1.0	 1	    1.10800	    0.89800;
	66	 1	 1965.45	 298.97	 0.0	 0.0	 1	    1.00300	    0.00000	 1.0	 1	    1.10800	    0.89800;
	67	 1	 199.24	 31.52	 0.0	 0.0	 1	    1.00300	    0.00000	 1.0	 1	    1.10800	    0.89800;
	68	 1	 -35.37	 174.17	 0.0	 576.85	 1	    1.00300	    0.00000	 1.0	 1	    1.10800	    0.89800;
	69	 1	 -23.29	 20.73	 0.0	 0.0	 1	    1.00300	    0.00000	 1.0	 1	    1.10800	    0.89800;
	70	 2	 51.91	 0.00	 0.0	 0.0	 1	    1.00300	    0.00000	 1.0	 1	    1.10800	    0.89800;
	71	 1	 3771.86	 1816.85	 0.0	 792.0	 1	    1.00300	    0.00000	 1.0	 1	    1.10800	    0.89800;
	72	 1	 0.0	 0.0	 0.0	 462.0	 1	    1.00300	    0.00000	 1.0	 1	    1.10800	    0.89800;
	73	 1	 -781.91	 -53.83	 0.0	 0.0	 1	    1.00300	    0.00000	 1.0	 1	    1.10800	    0.89800;
	74	 1	 0.0	 0.0	 0.0	 0.0	 1	    1.00300	    0.00000	 1.0	 1	    1.10800	    0.89800;
	75	 1	 3104.33	 413.70	 0.0	 0.0	 1	    1.00300	    0.00000	 1.0	 1	    1.10800	    0.89800;
	76	 1	 4106.11	 1164.73	 0.0	 1019.35	 1	    1.00300	    0.00000	 1.0	 1	    1.10800	    0.89800;
	77	 3	 54.24	 0.00	 0.0	 0.0	 1	    1.00300	    0.00000	 1.0	 1	    1.10800	    0.89800;
	78	 1	 4519.98	 538.10	 0.0	 550.0	 1	    1.00300	    0.00000	 1.0	 1	    1.10800	    0.89800;
	79	 2	 53.91	 0.00	 0.0	 0.0	 1	    1.00300	    0.00000	 1.0	 1	    1.10800	    0.89800;
	80	 1	 5811.68	 396.38	 0.0	 1200.0	 1	    1.00300	    0.00000	 1.0	 1	    1.10800	    0.89800;
	81	 1	 0.0	 0.0	 0.0	 -220.0	 1	    1.00300	    0.00000	 1.0	 1	    1.10800	    0.89800;
	82	 1	 -30.36	 -92.62	 0.0	 -674.0	 1	    1.00300	    0.00000	 1.0	 1	    1.10800	    0.89800;
	83	 1	 -185.65	 -127.12	 0.0	 -110.0	 1	    1.00300	    0.00000	 1.0	 1	    1.10800	    0.89800;
	84	 1	 0.0	 0.0	 0.0	 -220.0	 1	    1.00300	    0.00000	 1.0	 1	    1.10800	    0.89800;
	85	 1	 307.42	 -452.74	 0.0	 -870.0	 1	    1.00300	    0.00000	 1.0	 1	    1.10800	    0.89800;
	86	 1	 0.0	 0.0	 0.0	 0.0	 1	    1.00300	    0.00000	 1.0	 1	    1.10800	    0.89800;
	87	 1	 0.0	 0.0	 0.0	 0.0	 1	    1.00300	    0.00000	 1.0	 1	    1.10800	    0.89800;
	88	 1	 0.0	 0.0	 0.0	 0.0	 1	    1.00300	    0.00000	 1.0	 1	    1.10800	    0.89800;
	89	 1	 0.0	 0.0	 0.0	 0.0	 1	    1.00300	    0.00000	 1.0	 1	    1.10800	    0.89800;
	90	 1	 0.0	 0.0	 0.0	 0.0	 1	    1.00300	    0.00000	 1.0	 1	    1.10800	    0.89800;
	91	 1	 0.0	 0.0	 0.0	 0.0	 1	    1.00300	    0.00000	 1.0	 1	    1.10800	    0.89800;
	92	 1	 0.0	 0.0	 0.0	 0.0	 1	    1.00300	    0.00000	 1.0	 1	    1.10800	    0.89800;
	93	 1	 0.0	 0.0	 0.0	 0.0	 1	    1.00300	    0.00000	 1.0	 1	    1.10800	    0.89800;
	94	 1	 0.0	 0.0	 0.0	 0.0	 1	    1.00300	    0.00000	 1.0	 1	    1.10800	    0.89800;
	95	 1	 0.0	 0.0	 0.0	 0.0	 1	    1.00300	    0.00000	 1.0	 1	    1.10800	    0.89800;
	96	 1	 0.0	 0.0	 0.0	 0.0	 1	    1.00300	    0.00000	 1.0	 1	    1.10800	    0.89800;
	97	 1	 0.0	 0.0	 0.0	 0.0	 1	    1.00300	    0.00000	 1.0	 1	    1.10800	    0.89800;
	98	 1	 0.0	 0.0	 0.0	 0.0	 1	    1.00300	    0.00000	 1.0	 1	    1.10800	    0.89800;
	99	 1	 0.0	 0.0	 0.0	 0.0	 1	    1.00300	    0.00000	 1.0	 1	    1.10800	    0.89800;
	100	 1	 -19.81	 21.24	 0.0	 0.0	 3	    1.00300	    0.00000	 1.0	 1	    1.10800	    0.89800;
	101	 1	 107.66	 -82.50	 0.0	 0.0	 3	    1.00300	    0.00000	 1.0	 1	    1.10800	    0.89800;
	102	 1	 60.28	 26.25	 0.0	 0.0	 2	    1.00300	    0.00000	 1.0	 1	    1.10800	    0.89800;
	103	 2	 54.62	 0.00	 0.0	 0.0	 2	    1.00300	    0.00000	 1.0	 1	    1.10800	    0.89800;
	104	 1	 167.60	 -8.03	 0.0	 -91.0	 2	    1.00300	    0.00000	 1.0	 1	    1.10800	    0.89800;
	105	 1	 14.28	 -0.11	 0.0	 0.0	 3	    1.00300	    0.00000	 1.0	 1	    1.10800	    0.89800;
	106	 1	 3.78	 0.00	 0.0	 0.0	 3	    1.00300	    0.00000	 1.0	 1	    1.10800	    0.89800;
	107	 1	 333.15	 13.82	 0.0	 0.0	 2	    1.00300	    0.00000	 1.0	 1	    1.10800	    0.89800;
	108	 1	 28.61	 -310.03	 0.0	 -327.0	 2	    1.00300	    0.00000	 1.0	 1	    1.10800	    0.89800;
	109	 1	 1084.11	 35.78	 0.0	 -130.0	 2	    1.00300	    0.00000	 1.0	 1	    1.10800	    0.89800;
	110	 1	 49.11	 21.06	 0.0	 0.0	 2	    1.00300	    0.00000	 1.0	 1	    1.10800	    0.89800;
	111	 1	 -99.30	 63.54	 0.0	 0.0	 3	    1.00300	    0.00000	 1.0	 1	    1.10800	    0.89800;
	112	 2	 54.11	 0.00	 0.0	 0.0	 3	    1.00300	    0.00000	 1.0	 1	    1.10800	    0.89800;
	113	 1	 75.99	 0.00	 0.0	 -128.0	 3	    1.00300	    0.00000	 1.0	 1	    1.10800	    0.89800;
	114	 1	 0.0	 0.0	 0.0	 -91.0	 3	    1.00300	    0.00000	 1.0	 1	    1.10800	    0.89800;
	115	 1	 -0.38	 115.26	 0.0	 -91.0	 3	    1.00300	    0.00000	 1.0	 1	    1.10800	    0.89800;
	116	 2	 51.07	 0.00	 0.0	 0.0	 3	    1.00300	    0.00000	 1.0	 1	    1.10800	    0.89800;
	117	 1	 1112.11	 54.83	 0.0	 -32.0	 3	    1.00300	    0.00000	 1.0	 1	    1.10800	    0.89800;
	118	 2	 54.76	 0.00	 0.0	 0.0	 3	    1.00300	    0.00000	 1.0	 1	    1.10800	    0.89800;
	119	 1	 6726.45	 3818.43	 0.0	 1500.0	 3	    1.00300	    0.00000	 1.0	 1	    1.10800	    0.89800;
	120	 1	 0.0	 0.0	 0.0	 0.0	 3	    1.00300	    0.00000	 1.0	 1	    1.10800	    0.89800;
	121	 1	 0.0	 0.0	 0.0	 0.0	 3	    1.00300	    0.00000	 1.0	 1	    1.10800	    0.89800;
	122	 1	 0.0	 0.0	 0.0	 0.0	 3	    1.00300	    0.00000	 1.0	 1	    1.10800	    0.89800;
	123	 1	 0.0	 0.0	 0.0	 0.0	 3	    1.00300	    0.00000	 1.0	 1	    1.10800	    0.89800;
	124	 1	 0.0	 0.0	 0.0	 0.0	 3	    1.00300	    0.00000	 1.0	 1	    1.10800	    0.89800;
	125	 1	 0.0	 0.0	 0.0	 0.0	 3	    1.00300	    0.00000	 1.0	 1	    1.10800	    0.89800;
	126	 1	 0.0	 0.0	 0.0	 0.0	 3	    1.00300	    0.00000	 1.0	 1	    1.10800	    0.89800;
	127	 1	 0.0	 0.0	 0.0	 0.0	 3	    1.00300	    0.00000	 1.0	 1	    1.10800	    0.89800;
	128	 1	 0.0	 0.0	 0.0	 0.0	 3	    1.00300	    0.00000	 1.0	 1	    1.10800	    0.89800;
	129	 1	 0.0	 0.0	 0.0	 0.0	 3	    1.00300	    0.00000	 1.0	 1	    1.10800	    0.89800;
	130	 1	 0.0	 0.0	 0.0	 0.0	 3	    1.00300	    0.00000	 1.0	 1	    1.10800	    0.89800;
	131	 1	 0.0	 0.0	 0.0	 0.0	 3	    1.00300	    0.00000	 1.0	 1	    1.10800	    0.89800;
	132	 1	 0.0	 0.0	 0.0	 0.0	 2	    1.00300	    0.00000	 1.0	 1	    1.10800	    0.89800;
	133	 1	 0.0	 0.0	 0.0	 0.0	 2	    1.00300	    0.00000	 1.0	 1	    1.10800	    0.89800;
	134	 1	 0.0	 0.0	 0.0	 0.0	 2	    1.00300	    0.00000	 1.0	 1	    1.10800	    0.89800;
	135	 1	 0.0	 0.0	 0.0	 0.0	 2	    1.00300	    0.00000	 1.0	 1	    1.10800	    0.89800;
	136	 1	 1052.61	 17.91	 0.0	 0.0	 2	    1.00300	    0.00000	 1.0	 1	    1.10800	    0.89800;
	137	 1	 241.78	 17.51	 0.0	 0.0	 2	    1.00300	    0.00000	 1.0	 1	    1.10800	    0.89800;
	138	 2	 46.32	 0.00	 0.0	 0.0	 2	    1.00300	    0.00000	 1.0	 1	    1.10800	    0.89800;
	139	 1	 471.17	 -10.81	 0.0	 -319.0	 2	    1.00300	    0.00000	 1.0	 1	    1.10800	    0.89800;
	140	 2	 48.52	 0.00	 0.0	 0.0	 2	    1.00300	    0.00000	 1.0	 1	    1.10800	    0.89800;
	141	 1	 4391.67	 609.69	 0.0	 0.0	 2	    1.00300	    0.00000	 1.0	 1	    1.10800	    0.89800;
	142	 1	 107.93	 -26.18	 0.0	 0.0	 2	    1.00300	    0.00000	 1.0	 1	    1.10800	    0.89800;
	143	 1	 442.55	 60.86	 0.0	 0.0	 2	    1.00300	    0.00000	 1.0	 1	    1.10800	    0.89800;
	144	 2	 45.88	 0.00	 0.0	 0.0	 2	    1.00300	    0.00000	 1.0	 1	    1.10800	    0.89800;
	145	 1	 3911.13	 1238.88	 0.0	 400.0	 2	    1.00300	    0.00000	 1.0	 1	    1.10800	    0.89800;
	146	 1	 0.0	 0.0	 0.0	 0.0	 2	    1.00300	    0.00000	 1.0	 1	    1.10800	    0.89800;
	147	 1	 0.0	 0.0	 0.0	 -196.0	 2	    1.00300	    0.00000	 1.0	 1	    1.10800	    0.89800;
	148	 2	 53.68	 0.00	 0.0	 0.0	 2	    1.00300	    0.00000	 1.0	 1	    1.10800	    0.89800;
	149	 2	 49.94	 0.00	 0.0	 0.0	 2	    1.00300	    0.00000	 1.0	 1	    1.10800	    0.89800;
	150	 1	 4007.35	 75.65	 0.0	 0.0	 2	    1.00300	    0.00000	 1.0	 1	    1.10800	    0.89800;
	151	 1	 1419.40	 78.48	 0.0	 0.0	 2	    1.00300	    0.00000	 1.0	 1	    1.10800	    0.89800;
	152	 1	 485.21	 45.01	 0.0	 0.0	 2	    1.00300	    0.00000	 1.0	 1	    1.10800	    0.89800;
	153	 1	 0.0	 0.0	 0.0	 0.0	 2	    1.00300	    0.00000	 1.0	 1	    1.10800	    0.89800;
	154	 1	 511.38	 -10.66	 0.0	 -190.0	 2	    1.00300	    0.00000	 1.0	 1	    1.10800	    0.89800;
	155	 1	 533.57	 74.94	 0.0	 -60.0	 1	    1.00300	    0.00000	 1.0	 1	    1.10800	    0.89800;
	156	 1	 42.92	 12.04	 0.0	 0.0	 1	    1.00300	    0.00000	 1.0	 1	    1.10800	    0.89800;
	157	 1	 79.39	 -8.29	 0.0	 0.0	 1	    1.00300	    0.00000	 1.0	 1	    1.10800	    0.89800;
	158	 1	 134.55	 41.07	 0.0	 -220.0	 1	    1.00300	    0.00000	 1.0	 1	    1.10800	    0.89800;
	159	 2	 53.70	 0.00	 0.0	 0.0	 1	    1.00300	    0.00000	 1.0	 1	    1.10800	    0.89800;
	160	 1	 -29.29	 11.72	 0.0	 0.0	 1	    1.00300	    0.00000	 1.0	 1	    1.10800	    0.89800;
	161	 1	 349.40	 104.12	 0.0	 0.0	 1	    1.00300	    0.00000	 1.0	 1	    1.10800	    0.89800;
	162	 2	 47.79	 0.00	 0.0	 0.0	 1	    1.00300	    0.00000	 1.0	 1	    1.10800	    0.89800;
	163	 1	 0.0	 0.0	 0.0	 0.0	 1	    1.00300	    0.00000	 1.0	 1	    1.10800	    0.89800;
	164	 1	 38.20	 12.06	 0.0	 -18.0	 1	    1.00300	    0.00000	 1.0	 1	    1.10800	    0.89800;
	165	 1	 186.07	 70.00	 0.0	 0.0	 1	    1.00300	    0.00000	 1.0	 1	    1.10800	    0.89800;
	166	 1	 171.78	 -39.78	 0.0	 -50.0	 1	    1.00300	    0.00000	 1.0	 1	    1.10800	    0.89800;
	167	 1	 242.85	 75.76	 0.0	 0.0	 1	    1.00300	    0.00000	 1.0	 1	    1.10800	    0.89800;
	168	 1	 0.0	 0.0	 0.0	 0.0	 3	    1.00300	    0.00000	 1.0	 1	    1.10800	    0.89800;
	169	 1	 0.0	 0.0	 0.0	 0.0	 3	    1.00300	    0.00000	 1.0	 1	    1.10800	    0.89800;
	170	 1	 0.0	 0.0	 0.0	 0.0	 3	    1.00300	    0.00000	 1.0	 1	    1.10800	    0.89800;
	171	 1	 0.0	 0.0	 0.0	 0.0	 3	    1.00300	    0.00000	 1.0	 1	    1.10800	    0.89800;
	172	 1	 0.0	 0.0	 0.0	 0.0	 3	    1.00300	    0.00000	 1.0	 1	    1.10800	    0.89800;
	173	 1	 0.0	 0.0	 0.0	 0.0	 3	    1.00300	    0.00000	 1.0	 1	    1.10800	    0.89800;
	174	 1	 0.0	 0.0	 0.0	 0.0	 2	    1.00300	    0.00000	 1.0	 1	    1.10800	    0.89800;
	175	 1	 0.0	 0.0	 0.0	 0.0	 2	    1.00300	    0.00000	 1.0	 1	    1.10800	    0.89800;
	176	 1	 0.0	 0.0	 0.0	 0.0	 2	    1.00300	    0.00000	 1.0	 1	    1.10800	    0.89800;
	177	 1	 0.0	 0.0	 0.0	 0.0	 2	    1.00300	    0.00000	 1.0	 1	    1.10800	    0.89800;
	178	 1	 0.0	 0.0	 0.0	 0.0	 2	    1.00300	    0.00000	 1.0	 1	    1.10800	    0.89800;
	179	 1	 0.0	 0.0	 0.0	 0.0	 2	    1.00300	    0.00000	 1.0	 1	    1.10800	    0.89800;
	180	 1	 0.0	 0.0	 0.0	 -220.0	 1	    1.00300	    0.00000	 1.0	 1	    1.10800	    0.89800;
];

%% generator data
%	bus	Pg	Qg	Qmax	Qmin	Vg	mBase	status	Pmax	Pmin	Pc1	Pc2	Qc1min	Qc1max	Qc2min	Qc2max	ramp_agc	ramp_10	ramp_30	ramp_q	apf
mpc.gen = [
	4	 826.2625	 0.0	 750.0	 -750.0	 1.003	 1600.0	 1	 1500	 152.525	 0.0	 0.0	 0.0	 0.0	 0.0	 0.0	 0.0	 0.0	 0.0	 0.0	 1683.1216; % COW
	6	 676.27	 0.0	 619.0	 -619.0	 1.003	 2100.0	 1	 1237	 115.54	 0.0	 0.0	 0.0	 0.0	 0.0	 0.0	 0.0	 0.0	 0.0	 0.0	 1938.1774; % COW
	9	 801.335	 50.985	 701.97	 -600.0	 1.003	 4300.0	 1	 1199	 403.67	 0.0	 0.0	 0.0	 0.0	 0.0	 0.0	 0.0	 0.0	 0.0	 0.0	 4498.2554; % COW
	11	 910.065	 -17.94	 899.03	 -934.91	 1.003	 4100.0	 1	 1396	 424.13	 0.0	 0.0	 0.0	 0.0	 0.0	 0.0	 0.0	 0.0	 0.0	 0.0	 3956.9636; % COW
	13	 771.5275	 32.605	 697.21	 -632.0	 1.003	 3400.0	 1	 1264	 279.055	 0.0	 0.0	 0.0	 0.0	 0.0	 0.0	 0.0	 0.0	 0.0	 0.0	 3299.9353; % COW
	15	 1794.33	 1.14	 1405.28	 -1403.0	 1.003	 5300.0	 1	 2806	 782.66	 0.0	 0.0	 0.0	 0.0	 0.0	 0.0	 0.0	 0.0	 0.0	 0.0	 5393.5254; % COW
	18	 535.1025	 0.0	 401.0	 -401.0	 1.003	 2000.0	 1	 802	 268.205	 0.0	 0.0	 0.0	 0.0	 0.0	 0.0	 0.0	 0.0	 0.0	 0.0	 2074.4534; % COW
	30	 4307.6925	 11.185	 4070.83	 -4048.46	 1.003	 8900.0	 1	 7101	 1514.385	 0.0	 0.0	 0.0	 0.0	 0.0	 0.0	 0.0	 0.0	 0.0	 0.0	 9757.0576; % COW
	35	 2666.82	 1136.34	 5544.98	 -3272.3	 1.003	 9000.0	 1	 4609	 724.64	 0.0	 0.0	 0.0	 0.0	 0.0	 0.0	 0.0	 0.0	 0.0	 0.0	 8718.1563; % NUC
	36	 845.7625	 30.46	 652.92	 -592.0	 1.003	 3300.0	 1	 1184	 507.525	 0.0	 0.0	 0.0	 0.0	 0.0	 0.0	 0.0	 0.0	 0.0	 0.0	 3493.625; % COW
	40	 389.7125	 0.0	 385.0	 -385.0	 1.003	 400.0	 1	 769	 10.425	 0.0	 0.0	 0.0	 0.0	 0.0	 0.0	 0.0	 0.0	 0.0	 0.0	 362.5961; % NG
	43	 515.7325	 0.0	 484.0	 -484.0	 1.003	 650.0	 1	 968	 63.465	 0.0	 0.0	 0.0	 0.0	 0.0	 0.0	 0.0	 0.0	 0.0	 0.0	 673.957; % NG
	45	 1582.7125	 0.0	 1460.0	 -1460.0	 1.003	 3600.0	 1	 2919	 246.425	 0.0	 0.0	 0.0	 0.0	 0.0	 0.0	 0.0	 0.0	 0.0	 0.0	 3528.4009; % NUC
	47	 108.755	 0.69	 100.88	 -99.5	 1.003	 220.0	 1	 182	 35.51	 0.0	 0.0	 0.0	 0.0	 0.0	 0.0	 0.0	 0.0	 0.0	 0.0	 233.6808; % NG
	65	 1257.9275	 198.28	 1553.56	 -1157.0	 1.003	 5800.0	 1	 2313	 202.855	 0.0	 0.0	 0.0	 0.0	 0.0	 0.0	 0.0	 0.0	 0.0	 0.0	 5459.918; % COW
	70	 144.5525	 -79.99	 642.85	 -802.83	 1.003	 2600.0	 1	 238	 51.105	 0.0	 0.0	 0.0	 0.0	 0.0	 0.0	 0.0	 0.0	 0.0	 0.0	 2377.3799; % NG
	77	 4464.77	 0.0	 3722.4	 -3722.4	 1.003	 10400.0	 1	 7109	 1820.54	 0.0	 0.0	 0.0	 0.0	 0.0	 0.0	 0.0	 0.0	 0.0	 0.0	 11165.0508; % COW
	79	 6756.5525	 0.0	 6132.0	 -6132.0	 1.003	 20000.0	 1	 12263	 1250.105	 0.0	 0.0	 0.0	 0.0	 0.0	 0.0	 0.0	 0.0	 0.0	 0.0	 18208.2246; % COW
	103	 1386.795	 0.0	 1358.0	 -1358.0	 1.003	 1500.0	 1	 2716	 57.59	 0.0	 0.0	 0.0	 0.0	 0.0	 0.0	 0.0	 0.0	 0.0	 0.0	 1359.8911; % COW
	112	 795.78	 0.0	 694.0	 -694.0	 1.003	 2100.0	 1	 1387	 204.56	 0.0	 0.0	 0.0	 0.0	 0.0	 0.0	 0.0	 0.0	 0.0	 0.0	 2247.1069; % COW
	116	 931.04	 0.0	 853.0	 -853.0	 1.003	 1200.0	 1	 1706	 156.08	 0.0	 0.0	 0.0	 0.0	 0.0	 0.0	 0.0	 0.0	 0.0	 0.0	 1298.6926; % COW
	118	 3722.0375	 0.0	 4351.2	 -4351.2	 1.003	 6900.0	 1	 6655	 789.075	 0.0	 0.0	 0.0	 0.0	 0.0	 0.0	 0.0	 0.0	 0.0	 0.0	 7386.77; % COW
	138	 730.6425	 0.0	 653.0	 -653.0	 1.003	 2000.0	 1	 1305	 156.285	 0.0	 0.0	 0.0	 0.0	 0.0	 0.0	 0.0	 0.0	 0.0	 0.0	 2043.6079; % COW
	140	 2846.0725	 0.0	 2648.0	 -2648.0	 1.003	 6400.0	 1	 5295	 397.145	 0.0	 0.0	 0.0	 0.0	 0.0	 0.0	 0.0	 0.0	 0.0	 0.0	 6145.2231; % COW
	144	 3097.5825	 0.0	 2948.0	 -2948.0	 1.003	 3400.0	 1	 5896	 299.165	 0.0	 0.0	 0.0	 0.0	 0.0	 0.0	 0.0	 0.0	 0.0	 0.0	 3135.1221; % COW
	148	 778.4825	 68.775	 746.55	 -609.0	 1.003	 3400.0	 1	 1217	 339.965	 0.0	 0.0	 0.0	 0.0	 0.0	 0.0	 0.0	 0.0	 0.0	 0.0	 3402.5374; % COW
	149	 1733.6925	 0.0	 1502.0	 -1502.0	 1.003	 4400.0	 1	 3003	 464.385	 0.0	 0.0	 0.0	 0.0	 0.0	 0.0	 0.0	 0.0	 0.0	 0.0	 4251.854; % COW
	159	 873.28	 697.35	 10604.58	 -9209.88	 1.003	 3300.0	 1	 1274	 472.56	 0.0	 0.0	 0.0	 0.0	 0.0	 0.0	 0.0	 0.0	 0.0	 0.0	 3483.0479; % COW
	162	 322.8975	 -587.665	 9359.49	 -10534.82	 1.003	 900.0	 1	 564	 81.795	 0.0	 0.0	 0.0	 0.0	 0.0	 0.0	 0.0	 0.0	 0.0	 0.0	 839.6633; % COW
];

%% generator cost data
%	2	startup	shutdown	n	c(n-1)	...	c0
mpc.gencost = [
	2	 0.0	 0.0	 3	   0.000000	  27.125018	   0.000000; % COW
	2	 0.0	 0.0	 3	   0.000000	  25.767823	   0.000000; % COW
	2	 0.0	 0.0	 3	   0.000000	  33.458506	   0.000000; % COW
	2	 0.0	 0.0	 3	   0.000000	   6.580729	   0.000000; % COW
	2	 0.0	 0.0	 3	   0.000000	  31.784817	   0.000000; % COW
	2	 0.0	 0.0	 3	   0.000000	  27.844304	   0.000000; % COW
	2	 0.0	 0.0	 3	   0.000000	  41.899242	   0.000000; % COW
	2	 0.0	 0.0	 3	   0.000000	  26.887510	   0.000000; % COW
	2	 0.0	 0.0	 3	   0.000000	  26.647901	   0.000000; % NUC
	2	 0.0	 0.0	 3	   0.000000	  23.718395	   0.000000; % COW
	2	 0.0	 0.0	 3	   0.000000	  49.354886	   0.000000; % NG
	2	 0.0	 0.0	 3	   0.000000	  35.232014	   0.000000; % NG
	2	 0.0	 0.0	 3	   0.000000	  21.891639	   0.000000; % NUC
	2	 0.0	 0.0	 3	   0.000000	  25.383461	   0.000000; % NG
	2	 0.0	 0.0	 3	   0.000000	   8.035714	   0.000000; % COW
	2	 0.0	 0.0	 3	   0.000000	  33.912130	   0.000000; % NG
	2	 0.0	 0.0	 3	   0.000000	  25.457586	   0.000000; % COW
	2	 0.0	 0.0	 3	   0.000000	   7.168126	   0.000000; % COW
	2	 0.0	 0.0	 3	   0.000000	   8.487093	   0.000000; % COW
	2	 0.0	 0.0	 3	   0.000000	  19.203903	   0.000000; % COW
	2	 0.0	 0.0	 3	   0.000000	  30.820178	   0.000000; % COW
	2	 0.0	 0.0	 3	   0.000000	 124.672540	   0.000000; % COW
	2	 0.0	 0.0	 3	   0.000000	  28.267849	   0.000000; % COW
	2	 0.0	 0.0	 3	   0.000000	  31.546462	   0.000000; % COW
	2	 0.0	 0.0	 3	   0.000000	  22.349251	   0.000000; % COW
	2	 0.0	 0.0	 3	   0.000000	   7.230771	   0.000000; % COW
	2	 0.0	 0.0	 3	   0.000000	  14.174214	   0.000000; % COW
	2	 0.0	 0.0	 3	   0.000000	   8.614738	   0.000000; % COW
	2	 0.0	 0.0	 3	   0.000000	  49.876052	   0.000000; % COW
];

%% branch data
%	fbus	tbus	r	x	b	rateA	rateB	rateC	ratio	angle	status	angmin	angmax
mpc.branch = [
	2	 3	 0.0	 0.0146	 0.0	 2196.0	 2196.0	 2196.0	 0.0	 0.0	 1	 -30.0	 30.0;
	2	 4	 0.0	 0.0173	 0.0	 1853.0	 1853.0	 1853.0	 0.9545	 0.0	 1	 -30.0	 30.0;
	3	 8	 0.00179	 0.01988	 2.576	 1606.0	 1606.0	 1606.0	 0.0	 0.0	 1	 -30.0	 30.0;
	5	 6	 0.0	 0.01238	 0.0	 2589.0	 2589.0	 2589.0	 0.0	 0.0	 1	 -30.0	 30.0;
	5	 11	 0.0	 0.015	 0.0	 2137.0	 2137.0	 2137.0	 0.0	 0.0	 1	 -30.0	 30.0;
	17	 5	 0.00977	 0.11	 2.0	 291.0	 291.0	 291.0	 0.0	 0.0	 1	 -30.0	 30.0;
	5	 160	 0.00811	 0.1369	 2.4348	 234.0	 234.0	 234.0	 0.0	 0.0	 1	 -30.0	 30.0;
	7	 8	 0.0	 0.011	 0.0	 2914.0	 2914.0	 2914.0	 1.063	 0.0	 1	 -30.0	 30.0;
	7	 8	 0.0	 0.011	 0.0	 2914.0	 2914.0	 2914.0	 1.063	 0.0	 1	 -30.0	 30.0;
	7	 28	 0.0	 0.00408	 0.0	 5501.81	 7856.0	 7856.0	 0.0	 0.0	 1	 -30.0	 30.0;
	8	 9	 0.0	 0.0059	 0.0	 5432.0	 5432.0	 5432.0	 0.0	 0.0	 1	 -30.0	 30.0;
	8	 10	 0.00028	 0.0138	 0.0	 2322.0	 2322.0	 2322.0	 0.0	 0.0	 1	 -30.0	 30.0;
	8	 10	 0.00029	 0.0139	 0.0	 2306.0	 2306.0	 2306.0	 0.0	 0.0	 1	 -30.0	 30.0;
	8	 17	 0.0005	 0.0053	 0.0882	 2202.27	 6021.0	 6021.0	 0.0	 0.0	 1	 -30.0	 30.0;
	163	 8	 0.0048	 0.0436	 0.7078	 731.0	 731.0	 731.0	 0.0	 0.0	 1	 -30.0	 30.0;
	12	 13	 0.0	 0.00666	 0.0	 4813.0	 4813.0	 4813.0	 1.08	 0.0	 1	 -30.0	 30.0;
	12	 20	 0.0	 0.00634	 0.0	 5055.0	 5055.0	 5055.0	 0.0	 0.0	 1	 -30.0	 30.0;
	12	 22	 0.0	 0.01188	 0.0	 2698.0	 2698.0	 2698.0	 0.0	 0.0	 1	 -30.0	 30.0;
	12	 139	 0.0028	 0.0211	 1.0194	 1506.0	 1506.0	 1506.0	 0.0	 0.0	 1	 -30.0	 30.0;
	21	 14	 0.0	 0.00634	 0.0	 5055.0	 5055.0	 5055.0	 0.0	 0.0	 1	 -30.0	 30.0;
	14	 24	 0.0	 0.00826	 0.0	 3880.0	 3880.0	 3880.0	 0.0	 0.0	 1	 -30.0	 30.0;
	14	 26	 0.0	 0.01795	 0.0	 1786.0	 1786.0	 1786.0	 0.0	 0.0	 1	 -30.0	 30.0;
	29	 14	 0.0	 0.00612	 0.0	 5237.0	 5237.0	 5237.0	 0.0	 0.0	 1	 -30.0	 30.0;
	16	 15	 6e-05	 0.00495	 0.0	 6474.0	 6474.0	 6474.0	 1.1061	 0.0	 1	 -30.0	 30.0;
	16	 19	 0.0004	 0.0096	 0.9038	 3336.0	 3336.0	 3336.0	 0.0	 0.0	 1	 -30.0	 30.0;
	16	 19	 0.0004	 0.0096	 0.9038	 3336.0	 3336.0	 3336.0	 0.0	 0.0	 1	 -30.0	 30.0;
	16	 136	 0.00259	 0.02967	 2.153	 1077.0	 1077.0	 1077.0	 0.0	 0.0	 1	 -30.0	 30.0;
	16	 136	 0.00259	 0.02967	 2.153	 1077.0	 1077.0	 1077.0	 0.0	 0.0	 1	 -30.0	 30.0;
	17	 18	 0.0	 0.006	 0.0	 5342.0	 5342.0	 5342.0	 1.0435	 0.0	 1	 -30.0	 30.0;
	23	 19	 0.0	 0.01188	 0.0	 2698.0	 2698.0	 2698.0	 0.0	 0.0	 1	 -30.0	 30.0;
	25	 19	 0.0	 0.00826	 0.0	 3880.0	 3880.0	 3880.0	 0.0	 0.0	 1	 -30.0	 30.0;
	20	 21	 0.00077	 0.01804	 1.39842	 1775.0	 1775.0	 1775.0	 0.0	 0.0	 1	 -30.0	 30.0;
	22	 23	 0.00241	 0.05865	 4.8656	 546.0	 546.0	 546.0	 0.0	 0.0	 1	 -30.0	 30.0;
	24	 25	 0.00179	 0.04244	 3.3922	 755.0	 755.0	 755.0	 0.0	 0.0	 1	 -30.0	 30.0;
	26	 27	 0.00207	 0.04959	 3.9516	 646.0	 646.0	 646.0	 0.0	 0.0	 1	 -30.0	 30.0;
	27	 139	 0.0	 0.01795	 0.0	 1786.0	 1786.0	 1786.0	 0.0	 0.0	 1	 -30.0	 30.0;
	28	 29	 0.00177	 0.04189	 3.3446	 765.0	 765.0	 765.0	 0.0	 0.0	 1	 -30.0	 30.0;
	31	 30	 0.0	 0.0015	 0.0	 21366.0	 21366.0	 21366.0	 1.05	 0.0	 1	 -30.0	 30.0;
	31	 32	 0.0035	 0.07	 4.606	 458.0	 458.0	 458.0	 0.0	 0.0	 1	 -30.0	 30.0;
	31	 80	 0.00083	 0.0239	 3.3	 1341.0	 1341.0	 1341.0	 0.0	 0.0	 1	 -30.0	 30.0;
	32	 33	 0.0	 0.01	 0.0	 3205.0	 3205.0	 3205.0	 1.1	 0.0	 1	 -30.0	 30.0;
	33	 34	 0.002	 0.02	 0.8	 855.66	 1595.0	 1595.0	 0.0	 0.0	 1	 -30.0	 30.0;
	34	 35	 0.0	 0.002	 0.0	 16025.0	 16025.0	 16025.0	 0.0	 0.0	 1	 -30.0	 30.0;
	85	 36	 0.0	 0.0046	 0.0	 6968.0	 6968.0	 6968.0	 0.0	 0.0	 1	 -30.0	 30.0;
	37	 38	 0.00074	 0.01861	 1.40264	 1721.0	 1721.0	 1721.0	 0.0	 0.0	 1	 -30.0	 30.0;
	37	 56	 0.00082	 0.01668	 1.18802	 1920.0	 1920.0	 1920.0	 0.0	 0.0	 1	 -30.0	 30.0;
	37	 64	 0.0	 0.00159	 0.12002	 5755.18	 20157.0	 20157.0	 0.0	 0.0	 1	 -30.0	 30.0;
	37	 64	 0.0	 0.00159	 0.12002	 5757.14	 20157.0	 20157.0	 0.0	 0.0	 1	 -30.0	 30.0;
	38	 48	 0.00013	 0.00693	 0.0	 4624.0	 4624.0	 4624.0	 1.05	 0.0	 1	 -30.0	 30.0;
	39	 40	 0.0005	 0.0238	 0.0	 1347.0	 1347.0	 1347.0	 0.0	 0.0	 1	 -30.0	 30.0;
	39	 46	 0.00221	 0.03346	 0.07338	 892.46	 956.0	 956.0	 0.0	 0.0	 1	 -30.0	 30.0;
	39	 48	 0.0029	 0.038	 0.0824	 841.0	 841.0	 841.0	 0.0	 0.0	 1	 -30.0	 30.0;
	39	 59	 0.00309	 0.04677	 0.1008	 684.0	 684.0	 684.0	 0.0	 0.0	 1	 -30.0	 30.0;
	39	 60	 0.00226	 0.03422	 0.07506	 832.1	 935.0	 935.0	 0.0	 0.0	 1	 -30.0	 30.0;
	55	 41	 0.00047	 0.00723	 0.01624	 754.41	 4424.0	 4424.0	 0.0	 0.0	 1	 -30.0	 30.0;
	41	 58	 0.00035	 0.00536	 0.01204	 822.58	 5967.0	 5967.0	 0.0	 0.0	 1	 -30.0	 30.0;
	42	 43	 0.00058	 0.02535	 0.0	 1264.0	 1264.0	 1264.0	 1.0491	 0.0	 1	 -30.0	 30.0;
	50	 42	 0.0022	 0.03422	 0.07716	 761.15	 935.0	 935.0	 0.0	 0.0	 1	 -30.0	 30.0;
	50	 42	 0.00238	 0.03669	 0.08284	 872.0	 872.0	 872.0	 0.0	 0.0	 1	 -30.0	 30.0;
	57	 42	 0.00201	 0.03074	 0.06886	 768.89	 1041.0	 1041.0	 0.0	 0.0	 1	 -30.0	 30.0;
	42	 58	 0.00281	 0.04296	 0.09648	 745.0	 745.0	 745.0	 0.0	 0.0	 1	 -30.0	 30.0;
	44	 45	 0.0	 0.0052	 0.0	 6164.0	 6164.0	 6164.0	 1.025	 0.0	 1	 -30.0	 30.0;
	44	 160	 0.0018	 0.0245	 0.4392	 1305.0	 1305.0	 1305.0	 0.0	 0.0	 1	 -30.0	 30.0;
	44	 160	 0.0018	 0.0245	 0.4392	 1305.0	 1305.0	 1305.0	 0.0	 0.0	 1	 -30.0	 30.0;
	48	 46	 0.00029	 0.00434	 0.0095	 841.15	 7369.0	 7369.0	 0.0	 0.0	 1	 -30.0	 30.0;
	48	 47	 0.00499	 0.11473	 0.0	 280.0	 280.0	 280.0	 1.0478	 0.0	 1	 -30.0	 30.0;
	49	 48	 0.00026	 0.01386	 0.0	 2312.0	 2312.0	 2312.0	 1.05	 0.0	 1	 -30.0	 30.0;
	48	 55	 0.00229	 0.01583	 0.0306	 855.66	 2004.0	 2004.0	 0.0	 0.0	 1	 -30.0	 30.0;
	48	 55	 0.00229	 0.01583	 0.0306	 905.33	 2004.0	 2004.0	 0.0	 0.0	 1	 -30.0	 30.0;
	48	 59	 0.00141	 0.00967	 0.0194	 772.89	 3280.0	 3280.0	 0.0	 0.0	 1	 -30.0	 30.0;
	48	 59	 0.00141	 0.00967	 0.0194	 912.29	 3280.0	 3280.0	 0.0	 0.0	 1	 -30.0	 30.0;
	48	 59	 0.00161	 0.00971	 0.01928	 763.48	 3257.0	 3257.0	 0.0	 0.0	 1	 -30.0	 30.0;
	48	 59	 0.00161	 0.00971	 0.01928	 911.69	 3257.0	 3257.0	 0.0	 0.0	 1	 -30.0	 30.0;
	48	 60	 0.00027	 0.00393	 0.00918	 837.06	 8136.0	 8136.0	 0.0	 0.0	 1	 -30.0	 30.0;
	48	 60	 0.00027	 0.00393	 0.00918	 783.45	 8136.0	 8136.0	 0.0	 0.0	 1	 -30.0	 30.0;
	48	 60	 0.00027	 0.00393	 0.00918	 804.85	 8136.0	 8136.0	 0.0	 0.0	 1	 -30.0	 30.0;
	48	 62	 0.00138	 0.01116	 0.0247	 758.56	 2851.0	 2851.0	 0.0	 0.0	 1	 -30.0	 30.0;
	48	 62	 0.00138	 0.01116	 0.0247	 759.88	 2851.0	 2851.0	 0.0	 0.0	 1	 -30.0	 30.0;
	64	 49	 0.00083	 0.01884	 1.66668	 1700.0	 1700.0	 1700.0	 0.0	 0.0	 1	 -30.0	 30.0;
	50	 57	 0.00037	 0.00366	 0.0083	 880.09	 8713.0	 8713.0	 0.0	 0.0	 1	 -30.0	 30.0;
	50	 58	 0.00055	 0.00586	 0.01246	 835.5	 5446.0	 5446.0	 0.0	 0.0	 1	 -30.0	 30.0;
	52	 51	 0.00059	 0.01491	 0.0	 2148.0	 2148.0	 2148.0	 1.0017	 0.0	 1	 -30.0	 30.0;
	53	 51	 0.00059	 0.01491	 0.0	 2148.0	 2148.0	 2148.0	 1.0017	 0.0	 1	 -30.0	 30.0;
	54	 51	 0.0003	 0.0133	 0.0	 2410.0	 2410.0	 2410.0	 0.0	 0.0	 1	 -30.0	 30.0;
	54	 51	 0.0003	 0.0134	 0.0	 2392.0	 2392.0	 2392.0	 0.0	 0.0	 1	 -30.0	 30.0;