%%%%%%%%%%%%%%%%%%%%%%%%%%%%%%%%%%%%%%%%%%%%%%%%%%%%%%%%%%%%%%%%%%%%%%%%%%%
%%%%                                                                  %%%%%
%%%%    IEEE PES Power Grid Library - Optimal Power Flow - v17.07     %%%%%
%%%%          (https://github.com/power-grid-lib/pglib-opf)           %%%%%
%%%%             Benchmark Group - Active Power Increase              %%%%%
%%%%                         27 - June - 2017                         %%%%%
%%%%                                                                  %%%%%
%%%%%%%%%%%%%%%%%%%%%%%%%%%%%%%%%%%%%%%%%%%%%%%%%%%%%%%%%%%%%%%%%%%%%%%%%%%
function mpc = pglib_opf_case2869_pegase__api
mpc.version = '2';
mpc.baseMVA = 100.0;

%% bus data
%	bus_i	type	Pd	Qd	Gs	Bs	area	Vm	Va	baseKV	zone	Vmax	Vmin
mpc.bus = [
	3	 1	 166.27	 48.80	 0.0	 4.69	 0	    1.09384	   -7.99242	 220.0	 5	    1.10000	    0.90000;
	4	 1	 188.75	 23.40	 0.0	 2.1	 0	    1.06648	   -0.09695	 220.0	 5	    1.10000	    0.90000;
	10	 1	 147.55	 24.70	 0.0	 12.44	 0	    1.06210	  -26.09129	 220.0	 5	    1.10000	    0.90000;
	15	 1	 65.71	 26.70	 0.0	 12.84	 0	    1.08191	   -8.83304	 220.0	 4	    1.10000	    0.90000;
	21	 1	 177.51	 39.30	 0.0	 30.71	 0	    1.06685	  -23.61755	 220.0	 5	    1.10000	    0.90000;
	22	 1	 0.00	 -0.00	 0.0	 0.85	 0	    1.08506	  -17.41489	 220.0	 5	    1.10000	    0.90000;
	26	 1	 184.22	 54.80	 0.0	 110.54	 0	    1.07614	   -1.49019	 380.0	 5	    1.10000	    0.90000;
	29	 1	 168.37	 49.40	 0.0	 27.65	 0	    1.05046	   -6.17419	 380.0	 5	    1.10000	    0.90000;
	32	 2	 0.00	 0.00	 0.0	 0.0	 0	    1.04650	   -6.35739	 220.0	 4	    1.10000	    0.90000;
	33	 2	 0.00	 0.00	 0.0	 0.0	 0	    1.08359	   -9.20959	 220.0	 4	    1.10000	    0.90000;
	38	 1	 47.07	 12.80	 0.0	 13.3	 0	    1.00726	    8.55713	 220.0	 8	    1.10000	    0.90000;
	39	 2	 0.00	 0.00	 0.0	 0.0	 0	    1.06968	    8.97986	 150.0	 10	    1.10000	    0.90000;
	42	 1	 22.93	 7.90	 0.0	 26.89	 0	    1.09117	  -11.84181	 380.0	 4	    1.10000	    0.90000;
	44	 1	 -0.00	 0.00	 0.0	 7.27	 0	    1.06964	  -23.93922	 220.0	 5	    1.10000	    0.90000;
	51	 2	 0.00	 0.00	 0.0	 0.0	 0	    1.07611	   -9.65223	 220.0	 4	    1.10000	    0.90000;
	52	 1	 140.51	 31.80	 0.0	 20.51	 0	    1.06288	  -17.94174	 150.0	 8	    1.10000	    0.90000;
	53	 1	 53.57	 16.10	 0.0	 7.14	 0	    1.09404	    5.30028	 220.0	 5	    1.10000	    0.90000;
	58	 1	 0.00	 0.00	 0.0	 2.31	 0	    1.04564	   -1.94802	 380.0	 5	    1.10000	    0.90000;
	59	 1	 131.26	 20.70	 0.0	 3.31	 0	    1.08320	  -11.33208	 220.0	 5	    1.10000	    0.90000;
	69	 1	 69.23	 20.50	 0.0	 1.15	 0	    1.06229	  -19.09073	 150.0	 8	    1.10000	    0.90000;
	71	 1	 139.08	 42.40	 0.0	 55.24	 0	    1.07910	  -16.31906	 150.0	 8	    1.10000	    0.90000;
	72	 1	 6.91	 -4.60	 0.0	 5.75	 0	    1.05079	   -5.47854	 220.0	 4	    1.10000	    0.90000;
	75	 1	 42.66	 6.10	 0.0	 1.17	 0	    1.08400	  -15.39182	 220.0	 4	    1.10000	    0.90000;
	76	 1	 24.37	 10.70	 0.0	 14.21	 0	    1.00720	    8.56518	 220.0	 8	    1.10000	    0.90000;
	77	 1	 -0.00	 -0.00	 0.0	 0.73	 0	    1.08068	  -22.04753	 220.0	 4	    1.10000	    0.90000;
	89	 1	 0.00	 0.00	 0.199111	 4.530599	 0	    1.02015	  -11.67001	 380.0	 2	    1.10000	    0.90000;
	90	 1	 399.99	 115.39	 0.0	 3.95	 0	    1.08004	  -15.94288	 220.0	 5	    1.10000	    0.90000;
	91	 1	 -0.00	 0.00	 0.0	 0.02	 0	    1.06735	  -16.22904	 150.0	 8	    1.10000	    0.90000;
	96	 1	 -8.40	 28.66	 0.0	 3.49	 0	    1.09524	   -5.52630	 220.0	 5	    1.10000	    0.90000;
	113	 1	 -0.00	 -0.00	 0.0	 6.532711	 0	    1.07881	  -10.71902	 380.0	 5	    1.10000	    0.90000;
	115	 1	 0.00	 -0.00	 0.0	 4.21	 0	    1.05934	  -24.60846	 220.0	 5	    1.10000	    0.90000;
	118	 1	 704.53	 -35.33	 0.0	 13.102834	 0	    1.07553	   -6.97670	 380.0	 5	    1.10000	    0.90000;
	124	 2	 0.00	 0.00	 0.0	 0.0	 0	    1.09331	    6.97416	 220.0	 5	    1.10000	    0.90000;
	128	 1	 26.13	 12.70	 0.0	 0.52	 0	    1.06366	  -15.12148	 220.0	 5	    1.10000	    0.90000;
	130	 1	 -0.00	 0.00	 0.135375	 47.750675	 0	    1.08763	  -14.29875	 380.0	 10	    1.10000	    0.90000;
	132	 1	 0.00	 -0.00	 0.0	 21.39	 0	    1.08782	  -12.97469	 380.0	 1	    1.10000	    0.90000;
	133	 1	 42.00	 12.50	 0.0	 6.28	 0	    1.06742	  -16.79777	 150.0	 8	    1.10000	    0.90000;
	138	 1	 -75.38	 7.80	 0.0	 29.9	 0	    1.09652	   -3.61929	 380.0	 10	    1.10000	    0.90000;
	139	 1	 -764.34	 66.91	 0.0	 33.47	 0	    1.04480	   -1.79455	 380.0	 8	    1.10000	    0.90000;
	140	 1	 0.00	 0.00	 0.0	 4.14	 0	    1.04069	   -2.00621	 220.0	 8	    1.10000	    0.90000;
	143	 1	 0.00	 0.00	 0.0	 0.0	 0	    1.05423	  -15.06098	 150.0	 8	    1.10000	    0.90000;
	145	 1	 42.22	 5.60	 0.0	 7.64	 0	    1.08601	   -3.09112	 220.0	 5	    1.10000	    0.90000;
	148	 1	 35.61	 12.00	 0.0	 6.1	 0	    1.08032	   -0.12573	 220.0	 5	    1.10000	    0.90000;
	150	 2	 0.00	 0.00	 0.0	 0.0	 0	    1.09827	   13.17592	 220.0	 5	    1.10000	    0.90000;
	163	 1	 162.71	 32.73	 0.0	 8.34	 0	    1.09983	  -12.99883	 220.0	 5	    1.10000	    0.90000;
	164	 1	 0.00	 -0.00	 0.0	 5.17	 0	    1.06395	  -21.34390	 150.0	 8	    1.10000	    0.90000;
	171	 1	 111.00	 13.20	 0.0	 5.24	 0	    1.06939	  -17.51708	 220.0	 5	    1.10000	    0.90000;
	172	 1	 123.00	 10.96	 0.0	 4.22	 0	    1.09427	   -9.95179	 220.0	 4	    1.10000	    0.90000;
	174	 1	 370.50	 -17.00	 0.0	 9.91	 0	    1.09026	  -27.99586	 220.0	 5	    1.10000	    0.90000;
	177	 1	 104.50	 36.20	 0.0	 16.46	 0	    1.01166	   -2.40142	 220.0	 10	    1.10000	    0.90000;
	179	 2	 0.00	 0.00	 0.0	 0.0	 0	    1.09827	  -12.84573	 380.0	 4	    1.10000	    0.90000;
	184	 1	 -0.00	 -0.00	 0.0	 2.42	 0	    1.08580	  -11.57930	 220.0	 5	    1.10000	    0.90000;
	188	 1	 40.57	 13.90	 0.0	 3.3	 0	    1.06889	  -15.97894	 220.0	 5	    1.10000	    0.90000;
	194	 2	 0.00	 0.00	 0.0	 0.0	 0	    1.06035	   -8.56254	 150.0	 8	    1.10000	    0.90000;
	195	 1	 80.54	 21.55	 0.0	 8.52	 0	    1.09557	    6.31158	 220.0	 5	    1.10000	    0.90000;
	196	 1	 0.00	 -0.00	 0.0	 12.48	 0	    1.09348	  -28.93005	 220.0	 5	    1.10000	    0.90000;
	198	 1	 43.76	 11.80	 0.0	 1.44	 0	    1.05726	  -15.84191	 220.0	 5	    1.10000	    0.90000;
	199	 1	 95.58	 28.40	 0.0	 1.34	 0	    1.06275	  -17.36516	 150.0	 8	    1.10000	    0.90000;
	201	 2	 0.00	 0.00	 0.0	 0.0	 0	    1.09063	  -13.49800	 220.0	 4	    1.10000	    0.90000;
	205	 1	 50.82	 18.20	 0.0	 1.29	 0	    1.04855	  -14.22986	 150.0	 8	    1.10000	    0.90000;
	207	 1	 354.55	 84.40	 0.0	 1.34	 0	    1.07223	  -13.41667	 220.0	 5	    1.10000	    0.90000;
	211	 1	 82.89	 19.20	 0.0	 1.9	 0	    1.04615	   -6.45430	 110.0	 8	    1.10000	    0.90000;
	216	 1	 171.34	 54.70	 0.0	 2.21	 0	    1.09335	  -21.23789	 220.0	 5	    1.10000	    0.90000;
	217	 1	 115.84	 0.10	 0.0	 7.36	 0	    1.01297	  -10.58063	 220.0	 5	    1.10000	    0.90000;
	218	 1	 76.89	 15.12	 0.0	 2.23	 0	    1.08880	   -9.11714	 220.0	 5	    1.10000	    0.90000;
	221	 2	 0.00	 0.00	 0.0	 0.0	 0	    1.04095	   -2.20970	 380.0	 5	    1.10000	    0.90000;
	225	 1	 0.00	 0.00	 0.0	 1.15	 0	    1.05631	  -25.02860	 220.0	 5	    1.10000	    0.90000;
	228	 1	 -23.43	 57.40	 0.0	 0.0	 0	    1.04749	  -14.79098	 150.0	 2	    1.10000	    0.90000;
	230	 1	 167.45	 22.52	 0.0	 7.87	 0	    1.06996	    0.49618	 220.0	 4	    1.10000	    0.90000;
	231	 1	 -0.13	 -1.00	 0.0	 0.0	 0	    0.98771	    3.86770	 110.0	 8	    1.10000	    0.90000;
	236	 1	 50.49	 7.00	 0.0	 1.05	 0	    1.07403	  -17.06585	 220.0	 4	    1.10000	    0.90000;
	243	 1	 0.00	 -0.01	 0.0	 13.49	 0	    1.03823	   -3.62081	 150.0	 8	    1.10000	    0.90000;
	244	 1	 -0.00	 -0.00	 0.0	 0.68	 0	    1.06796	  -14.69602	 150.0	 8	    1.10000	    0.90000;
	249	 1	 -0.00	 -0.00	 0.0	 26.3	 0	    1.04625	   -6.43180	 220.0	 4	    1.10000	    0.90000;
	257	 1	 125.42	 24.50	 0.0	 6.72	 0	    1.07811	  -14.40595	 220.0	 4	    1.10000	    0.90000;
	261	 1	 -0.00	 0.00	 0.0	 1.29	 0	    1.08953	   -8.23193	 380.0	 10	    1.10000	    0.90000;
	264	 1	 42.66	 9.00	 0.0	 0.57	 0	    1.07388	  -10.73392	 220.0	 4	    1.10000	    0.90000;
	266	 1	 0.00	 -0.00	 0.0	 140.96	 0	    1.08928	   -5.31287	 380.0	 4	    1.10000	    0.90000;
	267	 1	 114.30	 2.70	 0.0	 3.33	 0	    1.07838	  -22.29073	 220.0	 4	    1.10000	    0.90000;
	268	 1	 -0.13	 -1.00	 0.0	 0.0	 0	    1.03008	    6.70214	 220.0	 8	    1.10000	    0.90000;
	271	 1	 106.48	 26.80	 0.0	 0.0	 0	    1.07144	  -16.56798	 150.0	 2	    1.10000	    0.90000;
	275	 1	 112.43	 25.30	 0.0	 1.11	 0	    1.06121	  -17.40172	 150.0	 8	    1.10000	    0.90000;
	280	 1	 131.70	 29.60	 0.0	 5.34	 0	    1.08302	  -10.40425	 220.0	 5	    1.10000	    0.90000;
	281	 1	 -0.00	 -0.00	 0.0	 18.07	 0	    1.06414	   -5.65806	 380.0	 8	    1.10000	    0.90000;
	283	 1	 30.09	 11.90	 0.0	 1.17	 0	    1.08287	  -12.16771	 220.0	 5	    1.10000	    0.90000;
	284	 1	 191.20	 -3.40	 0.0	 19.21	 0	    1.08043	   -9.21608	 220.0	 4	    1.10000	    0.90000;
	292	 1	 15.22	 1.40	 0.0	 0.7	 0	    1.09978	  -12.43277	 220.0	 5	    1.10000	    0.90000;
	297	 1	 26.13	 9.40	 0.0	 1.45	 0	    1.06760	  -15.66167	 150.0	 8	    1.10000	    0.90000;
	299	 2	 0.00	 0.00	 0.0	 0.0	 0	    1.10000	  -11.54972	 380.0	 4	    1.10000	    0.90000;
	304	 1	 2.42	 0.50	 0.0	 0.21	 0	    1.02700	  -19.94583	 150.0	 10	    1.10000	    0.90000;
	305	 1	 113.42	 12.00	 0.0	 0.63	 0	    1.08172	  -31.64312	 220.0	 5	    1.10000	    0.90000;
	306	 1	 -0.00	 0.00	 0.0	 4.76	 0	    1.04439	  -21.23531	 220.0	 5	    1.10000	    0.90000;
	311	 1	 46.30	 17.20	 0.0	 1.31	 0	    1.05949	  -18.77196	 150.0	 8	    1.10000	    0.90000;
	312	 1	 -0.16	 -2.91	 0.0	 0.43	 0	    1.09747	   -7.75310	 110.0	 8	    1.10000	    0.90000;
	314	 1	 179.60	 46.30	 0.0	 10.6	 0	    1.03160	  -19.18887	 220.0	 5	    1.10000	    0.90000;
	315	 1	 -0.00	 -0.00	 0.0	 2.13	 0	    1.05720	   -3.12542	 220.0	 10	    1.10000	    0.90000;
	317	 1	 -0.00	 -0.00	 0.045946	 -1.82203	 0	    0.99558	   -4.71526	 380.0	 2	    1.10000	    0.90000;
	322	 1	 334.53	 85.40	 0.0	 3.63	 0	    1.00237	   -3.85158	 220.0	 10	    1.10000	    0.90000;
	326	 1	 0.00	 0.00	 0.0	 0.0	 0	    1.03028	    6.71205	 220.0	 8	    1.10000	    0.90000;
	333	 1	 577.55	 43.00	 0.0	 6.85	 0	    1.02984	  -39.64618	 220.0	 5	    1.10000	    0.90000;
	338	 2	 0.00	 0.00	 0.0	 0.0	 0	    1.09955	    0.88112	 220.0	 5	    1.10000	    0.90000;
	344	 1	 410.51	 147.50	 0.0	 27.73	 0	    1.06826	  -21.29245	 150.0	 8	    1.10000	    0.90000;
	346	 1	 217.48	 48.30	 0.0	 0.71	 0	    1.09447	  -19.13406	 220.0	 5	    1.10000	    0.90000;
	349	 1	 -0.00	 0.00	 0.0	 15.15	 0	    1.09326	  -11.28526	 150.0	 8	    1.10000	    0.90000;
	350	 1	 121.57	 26.20	 0.0	 5.62	 0	    1.08417	  -26.56737	 220.0	 5	    1.10000	    0.90000;
	351	 1	 -0.15	 -1.93	 0.0	 0.0	 0	    1.03576	   -1.31847	 220.0	 8	    1.10000	    0.90000;
	352	 2	 0.00	 0.00	 0.0	 0.0	 0	    0.94320	   -9.14954	 380.0	 5	    1.10000	    0.90000;
	360	 1	 39.13	 11.50	 0.0	 3.65	 0	    1.09062	   -8.06118	 110.0	 8	    1.10000	    0.90000;
	367	 1	 65.17	 -51.50	 0.0	 4.85	 0	    1.09038	  -26.02891	 220.0	 5	    1.10000	    0.90000;
	369	 1	 -0.00	 0.00	 0.0	 3.78	 0	    1.08098	   -5.79214	 220.0	 8	    1.10000	    0.90000;
	370	 1	 62.50	 23.20	 0.0	 0.49	 0	    1.05682	  -18.96345	 150.0	 8	    1.10000	    0.90000;
	377	 1	 -0.18	 -1.00	 0.0	 0.0	 0	    1.05813	  -10.91446	 150.0	 8	    1.10000	    0.90000;
	380	 1	 -95.71	 -2.80	 0.0	 7.25	 0	    1.03430	    4.04576	 220.0	 10	    1.10000	    0.90000;
	385	 1	 -0.00	 -0.00	 0.0	 105.84	 0	    1.08854	  -13.49176	 380.0	 4	    1.10000	    0.90000;
	387	 1	 -0.19	 -4.38	 0.0	 0.0	 0	    1.08770	  -14.79551	 150.0	 8	    1.10000	    0.90000;
	389	 2	 0.00	 0.00	 0.0	 0.0	 0	    1.06699	   -3.61667	 150.0	 10	    1.10000	    0.90000;
	392	 1	 147.66	 34.20	 0.0	 0.75	 0	    1.05676	  -18.96201	 150.0	 8	    1.10000	    0.90000;
	395	 1	 -0.00	 -0.00	 0.0	 7.85	 0	    1.05593	   -4.61235	 380.0	 8	    1.10000	    0.90000;
	401	 1	 62.22	 36.29	 0.0	 3.08	 0	    1.09897	    0.31059	 220.0	 5	    1.10000	    0.90000;
	408	 1	 142.16	 7.40	 0.0	 0.04	 0	    1.09980	  -11.82886	 220.0	 5	    1.10000	    0.90000;
	410	 1	 188.18	 50.38	 0.0	 6.44	 0	    1.08746	  -11.69297	 220.0	 5	    1.10000	    0.90000;
	413	 2	 0.00	 0.00	 0.0	 0.0	 0	    1.06090	  -19.01066	 220.0	 5	    1.10000	    0.90000;
	415	 1	 5.19	 0.70	 0.0	 11.39	 0	    1.07281	  -15.10955	 220.0	 4	    1.10000	    0.90000;
	416	 1	 77.83	 13.50	 0.0	 6.96	 0	    1.07721	   -7.80788	 220.0	 5	    1.10000	    0.90000;
	420	 1	 0.00	 0.00	 0.0	 0.0	 0	    1.05907	   -1.36980	 380.0	 8	    1.10000	    0.90000;
	425	 1	 -0.00	 0.00	 0.0	 2.72	 0	    1.06294	   -9.11134	 380.0	 1	    1.10000	    0.90000;
	426	 1	 135.55	 6.50	 0.0	 3.25	 0	    1.07533	  -14.53708	 220.0	 5	    1.10000	    0.90000;
	427	 1	 -0.00	 0.00	 0.0	 1.24	 0	    1.08948	   -1.93873	 380.0	 1	    1.10000	    0.90000;
	429	 1	 26.93	 -22.40	 0.0	 4.95	 0	    1.08436	  -21.98727	 220.0	 4	    1.10000	    0.90000;
	432	 1	 -0.00	 -0.00	 0.0	 68.517663	 0	    1.07524	    5.97584	 380.0	 5	    1.10000	    0.90000;
	440	 2	 0.00	 0.00	 0.0	 0.0	 0	    1.07363	    4.51672	 220.0	 4	    1.10000	    0.90000;
	441	 1	 -0.00	 0.00	 0.199768	 27.888516	 0	    1.07217	  -17.64413	 380.0	 10	    1.10000	    0.90000;
	442	 2	 0.00	 0.00	 0.0	 0.0	 0	    1.08296	    2.04666	 220.0	 4	    1.10000	    0.90000;
	444	 1	 0.00	 -0.00	 0.0	 2.45	 0	    1.08170	  -12.26625	 220.0	 5	    1.10000	    0.90000;
	445	 1	 40.46	 10.30	 0.0	 8.1	 0	    1.07247	   -7.71966	 220.0	 4	    1.10000	    0.90000;
	449	 1	 0.00	 0.00	 0.0	 29.42	 0	    1.00787	  -15.50660	 380.0	 5	    1.10000	    0.90000;
	453	 2	 0.00	 0.00	 0.0	 0.0	 0	    1.06678	   -3.79308	 380.0	 5	    1.10000	    0.90000;
	455	 1	 302.07	 5.66	 0.0	 13.24	 0	    1.06388	  -28.31235	 220.0	 5	    1.10000	    0.90000;
	472	 1	 370.21	 131.60	 0.0	 64.01	 0	    1.09912	  -12.77233	 150.0	 8	    1.10000	    0.90000;
	473	 1	 -22.95	 -3.72	 0.0	 14.34	 0	    1.07719	   -8.50587	 220.0	 4	    1.10000	    0.90000;
	477	 1	 0.00	 0.00	 0.0	 70.37	 0	    1.08378	  -12.75157	 380.0	 4	    1.10000	    0.90000;
	481	 1	 -0.00	 0.00	 0.0	 17.44	 0	    1.07862	   -9.31141	 220.0	 4	    1.10000	    0.90000;
	483	 1	 63.05	 15.60	 0.0	 3.43	 0	    1.09198	  -13.03802	 220.0	 4	    1.10000	    0.90000;
	486	 1	 7.72	 2.00	 0.0	 0.44	 0	    1.06425	  -16.02030	 150.0	 8	    1.10000	    0.90000;
	489	 2	 0.00	 0.00	 0.0	 0.0	 0	    1.07328	  -10.83304	 220.0	 4	    1.10000	    0.90000;
	490	 1	 22.60	 4.00	 0.0	 2.77	 0	    1.09993	  -21.50431	 220.0	 5	    1.10000	    0.90000;
	496	 1	 -0.00	 -0.00	 0.0	 10.04	 0	    1.05523	  -11.15965	 150.0	 8	    1.10000	    0.90000;
	500	 1	 159.01	 35.50	 0.0	 7.66	 0	    1.08185	   -5.85021	 220.0	 5	    1.10000	    0.90000;
	502	 1	 -0.00	 0.00	 0.0	 1.96	 0	    1.09096	    2.53495	 220.0	 5	    1.10000	    0.90000;
	506	 1	 -0.00	 0.00	 0.0	 0.4	 0	    1.08864	  -10.12177	 380.0	 5	    1.10000	    0.90000;
	509	 1	 85.11	 7.00	 0.0	 17.6	 0	    1.08445	  -26.44942	 220.0	 4	    1.10000	    0.90000;
	513	 1	 63.27	 17.10	 0.0	 1.61	 0	    1.08468	    1.51419	 220.0	 5	    1.10000	    0.90000;
	516	 2	 0.00	 0.00	 0.0	 0.0	 0	    1.08979	  -29.64143	 220.0	 5	    1.10000	    0.90000;
	519	 1	 228.16	 9.40	 0.0	 8.77	 0	    1.08427	  -20.75281	 220.0	 4	    1.10000	    0.90000;
	520	 1	 130.49	 20.40	 0.0	 2.57	 0	    1.09547	  -11.94440	 220.0	 5	    1.10000	    0.90000;
	523	 1	 209.11	 74.70	 0.0	 26.2	 0	    1.09200	  -13.27265	 150.0	 8	    1.10000	    0.90000;
	527	 1	 305.79	 45.40	 0.0	 0.7	 0	    1.07408	  -10.90441	 220.0	 4	    1.10000	    0.90000;
	536	 1	 87.80	 -1.40	 0.079073	 36.047349	 0	    1.09065	  -15.14200	 380.0	 10	    1.10000	    0.90000;
	539	 1	 63.82	 18.90	 0.0	 14.91	 0	    1.06249	  -16.82072	 150.0	 8	    1.10000	    0.90000;
	544	 1	 87.75	 39.60	 0.0	 18.83	 0	    1.07436	  -17.41820	 380.0	 10	    1.10000	    0.90000;
	548	 1	 34.06	 8.90	 0.0	 0.45	 0	    1.02414	   -4.12345	 110.0	 8	    1.10000	    0.90000;
	549	 1	 0.00	 -0.00	 0.0	 5.15	 0	    1.09931	    3.26475	 220.0	 5	    1.10000	    0.90000;
	550	 1	 0.00	 -0.00	 0.0	 10.0	 0	    1.06679	  -15.31923	 220.0	 4	    1.10000	    0.90000;
	552	 1	 199.09	 90.80	 0.0	 2.42	 0	    1.01215	    1.51852	 150.0	 10	    1.10000	    0.90000;
	554	 1	 0.00	 -0.00	 0.0	 1.97	 0	    1.07420	  -19.73239	 220.0	 5	    1.10000	    0.90000;
	556	 1	 18.19	 9.00	 0.0	 1.17	 0	    1.09822	  -21.42222	 220.0	 5	    1.10000	    0.90000;
	558	 1	 -0.18	 -3.57	 0.0	 0.0	 0	    1.03824	   -3.62079	 150.0	 8	    1.10000	    0.90000;
	559	 1	 46.52	 16.60	 0.0	 0.0	 0	    1.08249	  -15.77191	 150.0	 8	    1.10000	    0.90000;
	561	 1	 0.00	 -0.00	 0.0	 0.32	 0	    1.09326	    4.56302	 220.0	 5	    1.10000	    0.90000;
	564	 2	 0.00	 0.00	 0.0	 0.0	 0	    1.10000	  -22.21457	 220.0	 5	    1.10000	    0.90000;
	575	 1	 0.00	 -0.00	 0.0	 0.67	 0	    1.09210	  -12.36293	 220.0	 5	    1.10000	    0.90000;
	577	 1	 -0.13	 -1.00	 0.0	 0.0	 0	    1.02922	    6.68350	 220.0	 8	    1.10000	    0.90000;
	579	 1	 19.07	 6.60	 0.0	 16.52	 0	    1.08688	  -17.25967	 380.0	 4	    1.10000	    0.90000;
	583	 2	 0.00	 0.00	 0.0	 0.0	 0	    1.09220	   -2.18419	 220.0	 5	    1.10000	    0.90000;
	585	 1	 23.26	 8.30	 0.0	 4.26	 0	    1.06553	  -15.16323	 150.0	 8	    1.10000	    0.90000;
	593	 1	 -0.00	 0.00	 0.0	 29.2	 0	    1.09935	   -6.24765	 380.0	 8	    1.10000	    0.90000;
	594	 1	 74.40	 17.00	 0.0	 5.75	 0	    1.04638	  -19.79878	 220.0	 5	    1.10000	    0.90000;
	595	 1	 52.36	 5.30	 0.0	 7.59	 0	    1.08246	  -20.06513	 220.0	 4	    1.10000	    0.90000;
	597	 1	 36.71	 15.70	 0.0	 64.15	 0	    1.09611	  -10.94815	 380.0	 4	    1.10000	    0.90000;
	601	 1	 154.82	 42.60	 0.0	 5.71	 0	    1.08921	  -12.09930	 220.0	 5	    1.10000	    0.90000;
	602	 1	 110.80	 -8.80	 0.0	 3.15	 0	    1.07237	   -9.66584	 220.0	 4	    1.10000	    0.90000;
	604	 1	 36.60	 4.40	 0.0	 24.54	 0	    1.04075	  -12.11083	 380.0	 5	    1.10000	    0.90000;
	608	 1	 166.16	 10.40	 0.0	 4.77	 0	    1.09582	  -15.72368	 220.0	 5	    1.10000	    0.90000;
	609	 1	 -0.00	 -0.00	 0.0	 5.67	 0	    1.07071	   -9.40203	 220.0	 5	    1.10000	    0.90000;
	610	 1	 -0.00	 0.00	 0.0	 0.91	 0	    1.02341	  -21.53097	 150.0	 10	    1.10000	    0.90000;
	615	 2	 0.00	 0.00	 0.0	 0.0	 0	    1.09989	   -0.00618	 220.0	 5	    1.10000	    0.90000;
	616	 2	 0.00	 0.00	 0.0	 0.0	 0	    1.09553	  -10.66695	 220.0	 5	    1.10000	    0.90000;
	618	 2	 0.00	 0.00	 0.0	 0.0	 0	    1.09781	  -13.74655	 380.0	 4	    1.10000	    0.90000;
	619	 1	 80.25	 14.40	 0.0	 2.96	 0	    1.09464	  -22.92025	 220.0	 5	    1.10000	    0.90000;
	621	 1	 23.59	 8.10	 0.0	 7.38	 0	    1.07212	  -17.89919	 220.0	 4	    1.10000	    0.90000;
	628	 2	 0.00	 0.00	 0.0	 0.0	 0	    1.00707	    0.68241	 220.0	 10	    1.10000	    0.90000;
	639	 2	 0.00	 0.00	 0.0	 0.0	 0	    1.09246	   -6.27689	 220.0	 5	    1.10000	    0.90000;
	641	 1	 49.90	 18.50	 0.0	 0.74	 0	    1.09494	   -6.54904	 220.0	 5	    1.10000	    0.90000;
	642	 2	 0.00	 0.00	 0.0	 0.0	 0	    1.10000	  -14.34751	 380.0	 4	    1.10000	    0.90000;
	643	 1	 17.09	 6.30	 0.0	 0.6	 0	    1.06332	  -18.50161	 150.0	 8	    1.10000	    0.90000;
	649	 1	 45.08	 19.20	 0.0	 5.2	 0	    1.08207	   -8.91772	 220.0	 4	    1.10000	    0.90000;
	650	 1	 18.96	 4.40	 0.0	 1.71	 0	    1.03034	   -7.70078	 110.0	 8	    1.10000	    0.90000;
	656	 1	 -0.15	 -1.93	 0.0	 0.0	 0	    1.03573	   -1.31695	 220.0	 8	    1.10000	    0.90000;
	658	 1	 284.54	 66.70	 0.0	 5.87	 0	    1.06008	  -17.02544	 220.0	 5	    1.10000	    0.90000;
	659	 1	 -0.00	 -0.00	 0.174507	 73.977052	 0	    0.99271	   -4.95839	 380.0	 2	    1.10000	    0.90000;
	661	 1	 -0.00	 -0.00	 0.0	 0.6	 0	    1.00342	   -5.78435	 380.0	 5	    1.10000	    0.90000;
	662	 1	 0.00	 -0.00	 0.0	 4.14	 0	    1.06410	   -7.66172	 380.0	 8	    1.10000	    0.90000;
	666	 1	 -5.61	 -2.79	 0.0	 150.93	 0	    1.06612	   -4.87414	 380.0	 5	    1.10000	    0.90000;
	676	 1	 120.36	 35.40	 0.0	 1.91	 0	    1.05409	  -13.34181	 150.0	 8	    1.10000	    0.90000;
	678	 1	 255.58	 89.80	 0.0	 0.09	 0	    1.08322	   -7.16263	 220.0	 5	    1.10000	    0.90000;
	682	 2	 0.00	 0.00	 0.0	 0.0	 0	    1.09731	    6.08697	 220.0	 5	    1.10000	    0.90000;
	686	 2	 0.00	 0.00	 0.0	 0.0	 0	    1.08240	   -7.30707	 220.0	 4	    1.10000	    0.90000;
	687	 1	 -0.00	 0.00	 0.0	 5.6	 0	    1.09555	   -3.17430	 220.0	 5	    1.10000	    0.90000;
	693	 1	 -0.00	 0.00	 0.0	 93.75	 0	    1.10000	    2.49563	 380.0	 4	    1.10000	    0.90000;
	695	 1	 106.16	 26.50	 0.0	 0.08	 0	    1.04257	   -4.36671	 220.0	 4	    1.10000	    0.90000;
	698	 2	 0.00	 0.00	 0.0	 0.0	 0	    1.00690	    0.74945	 220.0	 10	    1.10000	    0.90000;
	699	 1	 40.24	 8.40	 0.0	 6.58	 0	    1.07605	  -17.69039	 220.0	 4	    1.10000	    0.90000;
	702	 1	 -0.00	 -0.00	 0.0	 0.48	 0	    1.04346	    4.49854	 150.0	 10	    1.10000	    0.90000;
	706	 1	 126.41	 22.80	 0.0	 5.66	 0	    1.04740	  -13.97242	 220.0	 4	    1.10000	    0.90000;
	707	 1	 92.49	 21.20	 0.0	 5.36	 0	    1.07992	  -18.42967	 220.0	 5	    1.10000	    0.90000;
	709	 2	 0.00	 0.00	 0.0	 0.0	 0	    1.08866	   -2.64894	 380.0	 4	    1.10000	    0.90000;
	710	 1	 84.11	 5.10	 0.0	 3.97	 0	    1.08071	  -15.32158	 220.0	 4	    1.10000	    0.90000;
	712	 1	 121.57	 41.90	 0.0	 1.88	 0	    1.05301	  -18.87928	 150.0	 8	    1.10000	    0.90000;
	718	 1	 148.78	 41.00	 0.0	 5.31	 0	    1.08168	  -10.66356	 220.0	 5	    1.10000	    0.90000;
	720	 1	 -0.00	 -0.00	 0.0	 23.554121	 0	    1.02955	   -6.44056	 380.0	 5	    1.10000	    0.90000;
	722	 1	 0.00	 -0.00	 0.0	 0.78	 0	    1.06700	  -16.34262	 150.0	 8	    1.10000	    0.90000;
	726	 1	 440.79	 189.90	 0.0	 0.53	 0	    1.08638	   -4.06437	 220.0	 5	    1.10000	    0.90000;
	731	 1	 0.00	 0.00	 0.0	 61.48	 0	    1.08828	  -13.35904	 380.0	 4	    1.10000	    0.90000;
	733	 1	 64.26	 10.70	 0.0	 8.41	 0	    1.03709	  -13.05054	 110.0	 8	    1.10000	    0.90000;
	739	 2	 0.00	 0.00	 0.0	 0.0	 0	    1.08112	   -5.89010	 380.0	 4	    1.10000	    0.90000;
	742	 1	 0.00	 -0.00	 0.0	 2.83	 0	    1.09573	   -3.17581	 220.0	 5	    1.10000	    0.90000;
	747	 1	 76.62	 16.00	 0.0	 3.03	 0	    1.09254	  -28.99529	 220.0	 5	    1.10000	    0.90000;
	749	 2	 0.00	 0.00	 0.0	 0.0	 0	    1.09408	   -7.59754	 220.0	 5	    1.10000	    0.90000;
	750	 1	 -0.00	 -0.00	 0.0	 18.63	 0	    1.09509	  -21.09398	 220.0	 5	    1.10000	    0.90000;
	751	 2	 0.00	 0.00	 0.0	 0.0	 0	    1.07148	   -7.02929	 220.0	 4	    1.10000	    0.90000;
	754	 1	 145.46	 32.40	 0.0	 58.29	 0	    1.09789	   -8.53262	 380.0	 4	    1.10000	    0.90000;
	757	 2	 0.00	 0.00	 0.0	 0.0	 0	    1.06896	  -10.27019	 380.0	 5	    1.10000	    0.90000;
	766	 1	 -0.00	 0.00	 0.0	 7.85	 0	    1.09346	   -5.48520	 220.0	 5	    1.10000	    0.90000;
	769	 1	 168.00	 40.00	 0.0	 6.12	 0	    1.05850	   -8.15467	 220.0	 5	    1.10000	    0.90000;
	772	 1	 378.69	 141.90	 0.0	 5.55	 0	    1.07523	   -7.89428	 220.0	 5	    1.10000	    0.90000;
	775	 1	 -55.14	 -27.14	 0.0	 0.0	 0	    1.09919	  -12.76501	 150.0	 8	    1.10000	    0.90000;
	776	 2	 0.00	 0.00	 0.0	 0.0	 0	    1.09009	   -4.32807	 220.0	 5	    1.10000	    0.90000;
	778	 2	 0.00	 0.00	 0.0	 0.0	 0	    1.09992	    0.11264	 220.0	 5	    1.10000	    0.90000;
	780	 2	 0.00	 0.00	 0.0	 0.0	 0	    1.05281	   -9.27317	 220.0	 10	    1.10000	    0.90000;
	784	 1	 -26.00	 -14.72	 0.0	 0.0	 0	    1.06740	  -15.32949	 150.0	 8	    1.10000	    0.90000;
	785	 1	 -0.00	 -0.00	 0.0	 4.03	 0	    1.06298	   -2.30073	 220.0	 10	    1.10000	    0.90000;
	789	 1	 -0.00	 -0.00	 0.0	 6.63	 0	    1.08336	   -6.64154	 220.0	 5	    1.10000	    0.90000;
	790	 1	 -0.15	 -1.00	 0.0	 0.42	 0	    1.09962	   -6.91755	 110.0	 8	    1.10000	    0.90000;
	792	 1	 325.17	 41.90	 0.0	 0.0	 0	    1.00436	  -14.43711	 150.0	 2	    1.10000	    0.90000;
	795	 2	 0.00	 0.00	 0.0	 0.0	 0	    1.09986	   -2.45484	 220.0	 5	    1.10000	    0.90000;
	797	 1	 2.20	 114.60	 0.0	 16.15	 0	    1.05280	    0.06400	 220.0	 4	    1.10000	    0.90000;
	800	 1	 55.67	 18.00	 0.0	 0.11	 0	    1.08245	  -12.20222	 220.0	 5	    1.10000	    0.90000;
	803	 2	 0.00	 0.00	 0.0	 0.0	 0	    1.08954	  -10.85128	 220.0	 5	    1.10000	    0.90000;
	804	 1	 -0.00	 -0.00	 0.0	 7.26	 0	    1.10000	   -3.86567	 220.0	 5	    1.10000	    0.90000;
	805	 1	 137.09	 29.60	 0.0	 15.4	 0	    1.09892	   -8.17213	 220.0	 5	    1.10000	    0.90000;
	806	 1	 -0.00	 -0.00	 0.0	 32.02	 0	    1.04969	   -9.79045	 380.0	 8	    1.10000	    0.90000;
	807	 2	 0.00	 0.00	 0.0	 0.0	 0	    1.09818	   -4.12261	 380.0	 4	    1.10000	    0.90000;
	808	 1	 27.01	 8.60	 0.0	 7.01	 0	    1.08523	  -14.41548	 220.0	 4	    1.10000	    0.90000;
	809	 1	 0.00	 -0.00	 0.0	 58.088687	 0	    1.06395	   -0.60491	 380.0	 5	    1.10000	    0.90000;
	814	 1	 316.80	 16.30	 0.0	 12.86	 0	    1.08479	  -15.55199	 380.0	 4	    1.10000	    0.90000;
	819	 1	 0.00	 -0.00	 0.0	 0.22	 0	    1.09593	    4.22517	 220.0	 5	    1.10000	    0.90000;
	823	 2	 0.00	 0.00	 0.0	 0.0	 0	    0.97835	   -6.02198	 380.0	 5	    1.10000	    0.90000;
	838	 1	 678.10	 286.69	 0.0	 101.04	 0	    1.07005	  -15.80672	 150.0	 8	    1.10000	    0.90000;
	839	 1	 -0.00	 -0.00	 0.0	 8.17514	 0	    1.05595	   -1.41242	 380.0	 5	    1.10000	    0.90000;
	849	 2	 0.00	 0.00	 0.0	 0.0	 0	    1.09295	   -5.62018	 380.0	 4	    1.10000	    0.90000;
	851	 2	 0.00	 0.00	 0.0	 0.0	 0	    1.09628	   -6.03468	 220.0	 5	    1.10000	    0.90000;
	854	 1	 55.01	 7.50	 0.0	 8.86	 0	    1.07602	  -17.07714	 220.0	 4	    1.10000	    0.90000;
	858	 2	 0.00	 0.00	 0.0	 0.0	 0	    1.05700	    1.75427	 380.0	 5	    1.10000	    0.90000;
	869	 1	 103.73	 5.50	 0.0	 6.51	 0	    1.07240	   -9.12087	 220.0	 4	    1.10000	    0.90000;
	870	 1	 121.13	 3.40	 0.0	 11.95	 0	    1.09472	  -21.25077	 220.0	 5	    1.10000	    0.90000;
	871	 1	 108.89	 -21.76	 0.0	 3.72	 0	    1.08880	    2.83177	 220.0	 5	    1.10000	    0.90000;
	878	 1	 0.00	 -0.00	 0.0	 25.28	 0	    1.06565	  -10.55099	 150.0	 8	    1.10000	    0.90000;
	883	 1	 211.97	 78.30	 0.0	 6.65	 0	    1.06303	   -6.27292	 220.0	 5	    1.10000	    0.90000;
	891	 2	 0.00	 0.00	 0.0	 0.0	 0	    1.08814	  -16.47298	 380.0	 5	    1.10000	    0.90000;
	892	 1	 -0.00	 -0.00	 0.0	 9.1	 0	    1.08753	  -30.77203	 220.0	 5	    1.10000	    0.90000;
	898	 1	 28.22	 7.90	 0.0	 0.77	 0	    1.03419	   -6.22602	 110.0	 8	    1.10000	    0.90000;
	900	 1	 0.00	 0.00	 0.0	 0.15	 0	    1.07933	   -0.20920	 220.0	 5	    1.10000	    0.90000;
	903	 1	 91.05	 20.10	 0.0	 1.36	 0	    1.09251	  -29.02141	 220.0	 5	    1.10000	    0.90000;
	905	 1	 631.71	 -54.16	 0.0	 7.534129	 0	    1.07774	   -6.73139	 380.0	 5	    1.10000	    0.90000;
	907	 1	 -0.00	 -0.00	 0.0	 0.05	 0	    1.08385	   -4.13376	 220.0	 5	    1.10000	    0.90000;
	908	 1	 125.90	 -0.50	 0.0	 0.21	 0	    1.09614	    5.86414	 220.0	 5	    1.10000	    0.90000;
	913	 2	 0.00	 0.00	 0.0	 0.0	 0	    1.07324	   -7.59740	 380.0	 2	    1.10000	    0.90000;
	916	 2	 0.00	 0.00	 0.0	 0.0	 0	    1.06606	    4.42833	 220.0	 4	    1.10000	    0.90000;
	919	 1	 -0.00	 0.00	 0.0	 13.89	 0	    1.06096	   -7.11645	 380.0	 8	    1.10000	    0.90000;
	920	 1	 37.92	 8.50	 0.0	 1.11	 0	    1.09929	  -18.60471	 220.0	 5	    1.10000	    0.90000;
	923	 1	 68.35	 14.70	 0.0	 4.84	 0	    1.09839	  -21.62970	 220.0	 5	    1.10000	    0.90000;
	928	 1	 124.32	 19.30	 0.0	 17.34	 0	    1.06110	  -18.08717	 150.0	 8	    1.10000	    0.90000;
	929	 1	 48.18	 12.40	 0.0	 9.35	 0	    1.06901	   -6.23621	 220.0	 4	    1.10000	    0.90000;
	930	 2	 0.00	 0.00	 0.0	 0.0	 0	    1.08282	  -10.40530	 380.0	 4	    1.10000	    0.90000;
	932	 1	 85.44	 12.30	 0.0	 5.1	 0	    1.07608	  -16.74905	 220.0	 4	    1.10000	    0.90000;
	933	 1	 -0.00	 0.00	 0.0	 22.75	 0	    1.09371	   -8.84704	 220.0	 5	    1.10000	    0.90000;
	935	 1	 -0.00	 0.00	 0.0	 9.46	 0	    1.09693	  -22.10927	 220.0	 5	    1.10000	    0.90000;
	947	 1	 99.87	 5.80	 0.0	 4.1	 0	    1.04849	  -13.61205	 220.0	 4	    1.10000	    0.90000;
	948	 1	 17.42	 4.00	 0.0	 0.7	 0	    1.02393	  -21.13027	 150.0	 10	    1.10000	    0.90000;
	950	 1	 76.07	 22.60	 0.0	 0.54	 0	    1.06669	  -17.97502	 150.0	 8	    1.10000	    0.90000;
	953	 1	 108.70	 -12.15	 0.0	 37.11	 0	    1.05830	  -16.19392	 380.0	 5	    1.10000	    0.90000;
	954	 1	 72.97	 13.60	 0.0	 0.67	 0	    1.08520	  -15.00055	 220.0	 5	    1.10000	    0.90000;
	955	 1	 268.90	 152.70	 0.0	 0.0	 0	    1.04357	  -17.11732	 150.0	 2	    1.10000	    0.90000;
	957	 1	 72.42	 16.10	 0.0	 1.66	 0	    1.08084	   -6.00479	 220.0	 4	    1.10000	    0.90000;
	960	 1	 -0.00	 -0.00	 0.0	 108.728602	 0	    1.08864	  -10.12176	 380.0	 5	    1.10000	    0.90000;
	962	 1	 46.85	 17.10	 0.0	 1.67	 0	    1.07342	  -15.88292	 220.0	 4	    1.10000	    0.90000;
	964	 1	 97.45	 16.50	 0.0	 146.44	 0	    1.06349	   -9.39565	 380.0	 5	    1.10000	    0.90000;
	970	 1	 62.27	 -2.10	 0.0	 8.01	 0	    1.06471	    2.84635	 220.0	 4	    1.10000	    0.90000;
	972	 2	 0.00	 0.00	 0.0	 0.0	 0	    1.07082	    2.72779	 380.0	 5	    1.30000	    0.70000;
	976	 2	 0.00	 0.00	 0.0	 0.0	 0	    1.09893	  -14.60403	 380.0	 4	    1.10000	    0.90000;
	980	 1	 16.20	 4.60	 0.0	 7.88	 0	    1.09507	  -22.80538	 220.0	 5	    1.10000	    0.90000;
	981	 1	 0.00	 -0.00	 0.0	 0.84	 0	    1.07143	   -7.08496	 220.0	 4	    1.10000	    0.90000;
	986	 1	 17.60	 0.86	 0.0	 5.96	 0	    1.07032	  -15.70715	 220.0	 4	    1.10000	    0.90000;
	987	 1	 -0.00	 0.00	 0.0	 1.18	 0	    1.05876	    7.73285	 150.0	 10	    1.10000	    0.90000;
	988	 1	 -0.00	 -0.00	 0.0	 8.62	 0	    1.07563	  -16.41695	 220.0	 4	    1.10000	    0.90000;
	994	 1	 -0.00	 -0.00	 0.0	 25.0	 0	    1.06631	  -17.55240	 150.0	 8	    1.10000	    0.90000;
	999	 1	 22.05	 6.80	 0.0	 0.48	 0	    0.99745	    0.95864	 110.0	 8	    1.10000	    0.90000;
	1000	 1	 0.00	 -0.00	 0.0	 1.8	 0	    1.04998	    0.40680	 220.0	 1	    1.10000	    0.90000;