%%%%%%%%%%%%%%%%%%%%%%%%%%%%%%%%%%%%%%%%%%%%%%%%%%%%%%%%%%%%%%%%%%%%%%%%%%%
%%%%                                                                  %%%%%
%%%%    IEEE PES Power Grid Library - Optimal Power Flow - v17.07     %%%%%
%%%%          (https://github.com/power-grid-lib/pglib-opf)           %%%%%
%%%%             Benchmark Group - Active Power Increase              %%%%%
%%%%                         27 - June - 2017                         %%%%%
%%%%                                                                  %%%%%
%%%%%%%%%%%%%%%%%%%%%%%%%%%%%%%%%%%%%%%%%%%%%%%%%%%%%%%%%%%%%%%%%%%%%%%%%%%
function mpc = pglib_opf_case6495_rte__api
mpc.version = '2';
mpc.baseMVA = 100.0;

%% bus data
%	bus_i	type	Pd	Qd	Gs	Bs	area	Vm	Va	baseKV	zone	Vmax	Vmin
mpc.bus = [
	1	 1	 0.00	 0.00	 0.0	 0.0	 1	    0.99110	  -18.00960	 45.0	 1	    1.00000	    0.88889;
	2	 1	 0.00	 0.00	 0.0	 0.0	 1	    1.04426	   -9.58595	 63.0	 1	    1.06349	    0.93651;
	3	 1	 15.18	 2.60	 0.0	 0.0	 1	    1.04673	  -20.63052	 63.0	 1	    1.07937	    0.95238;
	4	 1	 57.03	 3.40	 0.0	 0.0	 1	    1.04914	  -30.95505	 90.0	 1	    1.08889	    0.93333;
	5	 1	 11.00	 0.00	 0.0	 0.0	 1	    1.02346	  -60.53504	 63.0	 1	    1.06349	    0.95238;
	6	 1	 15.07	 4.30	 0.0	 0.0	 1	    1.03048	  -14.07122	 63.0	 1	    1.07937	    0.92063;
	7	 1	 1.39	 0.70	 0.0	 0.0	 1	    1.04521	  -16.51075	 63.0	 1	    1.07937	    0.92063;
	8	 1	 28.51	 13.10	 0.0	 0.0	 1	    1.06335	  -27.38259	 225.0	 1	    1.08889	    0.88889;
	9	 1	 14.90	 0.00	 0.0	 0.0	 1	    1.04381	  -29.38156	 63.0	 1	    1.06349	    0.93651;
	10	 1	 0.00	 0.00	 0.0	 0.0	 1	    1.07778	  -27.01300	 90.0	 1	    1.07778	    0.92222;
	11	 1	 30.70	 -2.00	 0.0	 0.0	 1	    1.07778	  -27.01300	 90.0	 1	    1.07778	    0.92222;
	12	 1	 0.00	 0.00	 0.0	 0.0	 1	    1.02307	  -20.96671	 63.0	 1	    1.07937	    0.95238;
	13	 1	 0.00	 0.00	 0.0	 0.0	 1	    1.09112	   -2.86907	 380.0	 1	    1.10263	    1.05313;
	14	 1	 61.08	 13.40	 0.0	 30.4	 1	    1.07476	  -47.29794	 90.0	 1	    1.07778	    0.97778;
	15	 1	 0.00	 0.00	 0.0	 0.0	 1	    1.02736	   -8.43578	 63.0	 1	    1.07937	    0.92063;
	16	 1	 12.50	 -0.60	 0.0	 0.0	 1	    1.02422	  -23.59844	 63.0	 1	    1.07937	    0.92063;
	17	 1	 12.63	 0.20	 0.0	 0.0	 1	    1.03553	  -30.59766	 90.0	 1	    1.06667	    0.97778;
	18	 1	 0.00	 0.00	 0.0	 0.0	 1	    0.94603	  -13.10947	 45.0	 1	    1.00000	    0.88889;
	19	 1	 0.00	 0.00	 0.0	 0.0	 1	    1.03583	  -29.51267	 63.0	 1	    1.06349	    0.93651;
	20	 1	 3.90	 -18.20	 0.0	 0.0	 1	    0.94680	  -13.14355	 45.0	 1	    1.00000	    0.88889;
	21	 1	 6.30	 -2.50	 0.0	 0.0	 1	    1.03331	  -18.42039	 90.0	 1	    1.06667	    0.97778;
	22	 1	 20.05	 0.80	 0.0	 0.0	 1	    1.05914	  -18.16184	 63.0	 1	    1.07937	    0.95238;
	23	 1	 28.28	 1.40	 0.0	 0.0	 1	    1.04468	  -14.40167	 63.0	 1	    1.06349	    0.93651;
	24	 1	 16.70	 -1.30	 0.0	 0.0	 1	    1.05680	  -29.76158	 90.0	 1	    1.11111	    0.95556;
	25	 1	 51.10	 -4.00	 0.0	 0.0	 1	    1.07851	  -26.20383	 90.0	 1	    1.10000	    0.94444;
	26	 1	 37.55	 5.00	 0.0	 0.0	 1	    1.03888	  -29.80561	 90.0	 1	    1.06667	    0.97778;
	27	 1	 0.00	 0.00	 0.0	 0.0	 1	    1.07239	  -24.80224	 225.0	 1	    1.08444	    1.00444;
	28	 1	 0.00	 -0.20	 0.0	 0.0	 1	    1.05458	  -28.47717	 63.0	 1	    1.07937	    0.95238;
	29	 1	 86.93	 9.30	 0.0	 0.0	 1	    1.01838	  -15.55571	 63.0	 1	    1.06349	    0.96825;
	30	 1	 43.58	 3.30	 0.0	 0.0	 1	    1.06183	  -29.57686	 90.0	 1	    1.08889	    0.93333;
	31	 1	 0.00	 0.00	 0.0	 0.0	 1	    1.05089	  -15.93802	 63.0	 1	    1.06349	    0.93651;
	32	 1	 0.00	 0.00	 0.0	 0.0	 1	    1.05434	  -12.29832	 150.0	 1	    1.10667	    0.90000;
	33	 1	 0.00	 0.00	 0.0	 0.0	 1	    1.06387	  -14.29653	 225.0	 1	    1.08889	    0.93333;
	34	 1	 0.00	 0.00	 0.0	 0.0	 1	    1.06661	  -12.78824	 225.0	 1	    1.08889	    0.93333;
	35	 1	 0.00	 0.00	 0.0	 0.0	 1	    1.06199	  -14.00422	 380.0	 1	    1.10526	    1.03947;
	36	 1	 0.00	 0.00	 0.0	 0.0	 1	    1.04182	  -13.98941	 380.0	 1	    1.10526	    1.03947;
	37	 1	 2.78	 4.70	 0.0	 0.0	 1	    1.02050	  -18.44915	 63.0	 1	    1.07937	    0.92063;
	38	 1	 9.27	 3.00	 0.0	 0.0	 1	    1.03610	  -30.46161	 63.0	 1	    1.09524	    0.93651;
	39	 1	 40.60	 -4.90	 0.0	 0.0	 1	    1.01369	  -51.87134	 90.0	 1	    1.07778	    0.97778;
	40	 1	 40.22	 5.10	 0.0	 0.0	 1	    1.06291	  -45.92045	 90.0	 1	    1.07778	    0.97778;
	41	 1	 0.00	 0.00	 0.0	 0.0	 1	    1.08146	  -39.82922	 225.0	 1	    1.09152	    1.00444;
	42	 1	 0.00	 0.00	 0.0	 0.0	 1	    1.12797	  -16.07665	 63.0	 1	    1.12834	    0.95238;
	43	 1	 3.83	 2.70	 0.0	 0.0	 1	    1.05749	  -44.48940	 90.0	 1	    1.07778	    0.97778;
	44	 1	 17.62	 1.60	 0.0	 0.0	 1	    1.02796	  -57.06756	 63.0	 1	    1.06349	    0.95238;
	45	 1	 4.40	 0.80	 0.0	 0.0	 1	    1.02693	  -42.37813	 90.0	 1	    1.06667	    0.97778;
	46	 1	 0.00	 0.00	 0.0	 0.0	 1	    1.04207	   -4.60934	 63.0	 1	    1.06349	    0.93651;
	47	 2	 0.00	 0.00	 0.0	 0.0	 1	    1.06349	    5.29373	 63.0	 1	    1.06349	    0.93651;
	48	 1	 44.74	 3.90	 0.0	 0.0	 1	    1.03010	  -29.59263	 90.0	 1	    1.07778	    0.92222;
	49	 1	 9.90	 -2.60	 0.0	 0.0	 1	    1.04670	  -23.66992	 63.0	 1	    1.06349	    0.93651;
	50	 1	 0.00	 0.00	 0.0	 0.0	 1	    1.06884	  -25.09642	 63.0	 1	    1.07458	    0.93651;
	51	 1	 0.00	 0.00	 0.0	 0.0	 1	    1.05601	  -20.10826	 225.0	 1	    1.08889	    0.93333;
	52	 1	 9.27	 3.50	 0.0	 0.0	 1	    1.04586	  -44.81380	 90.0	 1	    1.06667	    0.97778;
	53	 1	 0.10	 -1.20	 0.0	 0.0	 1	    1.01798	  -43.08354	 63.0	 1	    1.04762	    0.95238;
	54	 1	 -0.60	 1.20	 0.0	 0.0	 1	    1.02620	  -13.46243	 90.0	 1	    1.06667	    0.97778;
	55	 1	 56.80	 11.30	 0.0	 0.0	 1	    1.08519	  -45.15056	 225.0	 1	    1.08991	    1.00444;
	56	 1	 91.10	 22.50	 0.0	 0.0	 1	    1.07693	  -38.52331	 225.0	 1	    1.08889	    1.00444;
	57	 2	 0.00	 0.00	 0.0	 0.0	 1	    1.07937	    1.76456	 63.0	 1	    1.07937	    0.92063;
	58	 1	 170.04	 32.50	 0.0	 0.0	 1	    1.08501	  -45.16711	 225.0	 1	    1.08975	    1.00444;
	59	 1	 5.91	 0.40	 0.0	 0.0	 1	    1.05342	  -23.76822	 63.0	 1	    1.07937	    0.95238;
	60	 1	 0.00	 0.00	 0.0	 0.0	 1	    1.04241	  -24.05933	 63.0	 1	    1.07937	    0.95238;
	61	 1	 47.99	 11.60	 0.0	 0.0	 1	    1.04243	  -23.87456	 63.0	 1	    1.07937	    0.95238;
	62	 1	 0.00	 0.00	 0.0	 0.0	 1	    1.03238	  -25.31431	 63.0	 1	    1.07937	    0.95238;
	63	 1	 18.31	 2.00	 0.0	 0.0	 1	    1.01258	  -21.02781	 63.0	 1	    1.07937	    0.95238;
	64	 1	 74.53	 5.40	 0.0	 0.0	 1	    1.07800	  -28.98029	 225.0	 1	    1.08889	    0.88889;
	65	 1	 13.91	 2.90	 0.0	 0.0	 1	    1.05101	  -25.18499	 63.0	 1	    1.07937	    0.95238;
	66	 1	 14.40	 -6.80	 0.0	 0.0	 1	    1.03060	  -31.26079	 63.0	 1	    1.06349	    0.93651;
	67	 1	 1.00	 0.00	 0.0	 0.0	 1	    1.02545	  -13.31356	 63.0	 1	    1.07937	    0.92063;
	68	 1	 56.45	 3.80	 0.0	 0.0	 1	    1.02500	  -20.52926	 63.0	 1	    1.06349	    0.93651;
	69	 1	 17.30	 -1.60	 0.0	 0.0	 1	    1.04553	  -60.97795	 63.0	 1	    1.06349	    0.95238;
	70	 1	 13.56	 3.50	 0.0	 0.0	 1	    1.02936	  -19.71441	 63.0	 1	    1.07937	    0.95238;
	71	 1	 79.75	 17.20	 0.0	 0.0	 1	    1.03951	  -44.06357	 63.0	 1	    1.04762	    0.95238;
	72	 1	 0.00	 0.00	 0.0	 0.0	 1	    1.08892	  -39.37578	 225.0	 1	    1.08892	    1.00444;
	73	 1	 0.00	 0.00	 0.0	 0.0	 1	    1.08892	  -39.37956	 225.0	 1	    1.08892	    1.00444;
	74	 1	 53.30	 -8.70	 0.0	 0.0	 1	    1.07848	  -28.80604	 225.0	 1	    1.08889	    0.88889;
	75	 1	 28.98	 1.60	 0.0	 0.0	 1	    1.06052	  -33.43850	 90.0	 1	    1.06667	    0.97778;
	76	 1	 10.43	 0.70	 0.0	 0.0	 1	    1.07913	  -17.25271	 225.0	 1	    1.08889	    0.98667;
	77	 1	 40.80	 -1.50	 0.0	 0.0	 1	    1.03371	  -23.25632	 63.0	 1	    1.06349	    0.93651;
	78	 1	 0.00	 0.00	 0.0	 0.0	 1	    1.03322	  -15.78164	 63.0	 1	    1.07937	    0.92063;
	79	 1	 0.00	 0.00	 0.0	 0.0	 1	    1.02702	  -27.06739	 63.0	 1	    1.04762	    0.95238;
	80	 1	 40.10	 10.40	 0.0	 0.0	 1	    1.08749	  -39.39411	 225.0	 1	    1.08889	    1.00444;
	81	 1	 40.10	 9.00	 0.0	 0.0	 1	    1.08751	  -39.39400	 225.0	 1	    1.08889	    1.00444;
	82	 1	 11.60	 -0.20	 0.0	 0.0	 1	    1.04864	  -25.11761	 63.0	 1	    1.06349	    0.93651;
	83	 1	 107.10	 64.50	 0.0	 0.0	 1	    1.07113	  -42.56768	 225.0	 1	    1.08889	    1.00444;
	84	 1	 1.40	 -0.20	 0.0	 0.0	 1	    1.06106	   -7.89534	 63.0	 1	    1.06349	    0.93651;
	85	 1	 1.80	 -2.00	 0.0	 0.0	 1	    1.03781	  -14.42768	 63.0	 1	    1.06568	    0.93651;
	86	 1	 52.04	 3.70	 0.0	 0.0	 1	    1.03366	  -50.07787	 90.0	 1	    1.06667	    0.97778;
	87	 1	 0.00	 0.00	 0.0	 0.0	 1	    1.02939	  -20.61003	 63.0	 1	    1.07937	    0.95238;
	88	 1	 18.43	 2.00	 0.0	 0.0	 1	    1.05105	  -22.74531	 63.0	 1	    1.06349	    0.93651;
	89	 1	 29.79	 0.40	 0.0	 0.0	 1	    1.05365	  -46.70156	 90.0	 1	    1.07778	    0.97778;
	90	 1	 0.40	 -2.30	 0.0	 0.0	 1	    0.95254	  -13.64471	 45.0	 1	    1.00000	    0.88889;
	91	 1	 0.00	 0.00	 0.0	 0.0	 1	    0.94603	  -13.10947	 45.0	 1	    1.00000	    0.88889;
	92	 1	 36.63	 3.20	 0.0	 0.0	 1	    1.03804	  -15.72781	 63.0	 1	    1.06349	    0.96825;
	93	 1	 2.20	 -2.20	 0.0	 0.0	 1	    0.97380	  -13.83316	 45.0	 1	    1.00000	    0.88889;
	94	 1	 16.90	 -4.60	 0.0	 0.0	 1	    1.03300	  -26.15966	 90.0	 1	    1.06667	    0.97778;
	95	 1	 61.66	 9.30	 0.0	 0.0	 1	    1.03404	  -43.69372	 90.0	 1	    1.06667	    0.97778;
	96	 1	 1.39	 0.10	 0.0	 0.0	 1	    1.05777	  -16.74696	 63.0	 1	    1.06349	    0.93651;
	97	 1	 63.75	 1.60	 0.0	 0.0	 1	    1.05456	  -20.12439	 63.0	 1	    1.07937	    0.92063;
	98	 1	 7.70	 -2.10	 0.0	 0.0	 1	    1.04186	  -29.44116	 63.0	 1	    1.07937	    0.95238;
	99	 1	 36.98	 5.00	 0.0	 0.0	 1	    1.04723	  -24.12322	 63.0	 1	    1.07937	    0.95238;
	100	 1	 69.43	 8.90	 0.0	 0.0	 1	    1.01315	  -24.64923	 63.0	 1	    1.06349	    0.93651;
	101	 1	 19.82	 0.10	 0.0	 0.0	 1	    1.03875	   -6.96219	 63.0	 1	    1.06349	    0.93651;
	102	 2	 0.00	 0.00	 0.0	 0.0	 1	    1.05685	  -11.11441	 63.0	 1	    1.07937	    0.95238;
	103	 1	 13.00	 -1.40	 0.0	 0.0	 1	    1.04778	  -23.99034	 63.0	 1	    1.07937	    0.95238;
	104	 1	 0.00	 0.00	 0.0	 0.0	 1	    1.07952	  -21.39154	 225.0	 1	    1.08889	    0.98667;
	105	 1	 43.70	 0.80	 0.0	 0.0	 1	    1.05417	  -27.85707	 225.0	 1	    1.08889	    0.88889;
	106	 1	 65.26	 8.20	 0.0	 0.0	 1	    1.06702	  -34.30683	 90.0	 1	    1.10000	    0.94444;
	107	 1	 124.49	 13.90	 0.0	 0.0	 1	    1.05652	  -19.20098	 225.0	 1	    1.08444	    1.00889;
	108	 1	 12.70	 -3.90	 0.0	 0.0	 1	    1.06338	  -43.34049	 90.0	 1	    1.07778	    0.97778;
	109	 1	 70.47	 4.10	 0.0	 0.0	 1	    1.04197	   -5.16952	 63.0	 1	    1.06837	    0.93651;
	110	 1	 0.00	 0.00	 0.0	 0.0	 1	    1.04240	  -10.61615	 225.0	 1	    1.08889	    0.93333;
	111	 1	 37.30	 -7.40	 0.0	 0.0	 1	    1.03208	  -12.31406	 63.0	 1	    1.06349	    0.96825;
	112	 1	 0.00	 0.00	 0.0	 0.0	 1	    1.02823	  -41.29362	 63.0	 1	    1.04762	    0.95238;
	113	 1	 0.00	 0.00	 0.0	 0.0	 1	    1.06204	  -37.30276	 225.0	 1	    1.08889	    1.00444;
	114	 1	 14.95	 0.70	 0.0	 0.0	 1	    1.04979	  -13.15448	 63.0	 1	    1.06349	    0.93651;
	115	 1	 0.00	 0.00	 0.0	 0.0	 1	    1.09113	   -2.86915	 380.0	 1	    1.10526	    1.05263;
	116	 1	 0.00	 0.00	 0.0	 0.0	 1	    1.09113	   -2.86915	 380.0	 1	    1.10526	    1.05263;
	117	 1	 12.80	 -2.10	 0.0	 0.0	 1	    1.04003	  -28.54593	 63.0	 1	    1.07937	    0.95238;
	118	 1	 2.32	 0.80	 0.0	 0.0	 1	    1.06321	  -33.07636	 90.0	 1	    1.06667	    0.97778;
	119	 1	 46.71	 3.70	 0.0	 0.0	 1	    1.02727	  -17.71277	 63.0	 1	    1.06349	    0.93651;
	120	 1	 22.00	 -2.30	 0.0	 0.0	 1	    1.05479	  -12.71763	 63.0	 1	    1.06349	    0.93651;
	121	 1	 25.62	 6.80	 0.0	 0.0	 1	    1.02123	  -22.04941	 63.0	 1	    1.07937	    0.92063;
	122	 2	 0.00	 0.00	 0.0	 0.0	 1	    1.05463	  -25.14019	 63.0	 1	    1.07937	    0.95238;
	123	 1	 12.75	 3.70	 0.0	 0.0	 1	    1.05111	  -25.18173	 63.0	 1	    1.07937	    0.95238;
	124	 1	 8.90	 -2.20	 0.0	 0.0	 1	    1.04247	  -28.73422	 90.0	 1	    1.06667	    0.97778;
	125	 1	 11.60	 -1.20	 0.0	 0.0	 1	    1.07937	   -6.52074	 63.0	 1	    1.07937	    0.95238;
	126	 1	 0.46	 0.30	 0.0	 0.0	 1	    1.04334	  -12.06311	 63.0	 1	    1.06349	    0.93651;
	127	 1	 12.40	 2.90	 0.0	 0.0	 1	    1.02325	  -26.54804	 63.0	 1	    1.04762	    0.95238;
	128	 1	 15.53	 5.00	 0.0	 0.0	 1	    1.04150	  -11.56175	 63.0	 1	    1.06349	    0.96825;
	129	 1	 19.70	 12.80	 0.0	 0.0	 1	    1.04118	  -11.25208	 63.0	 1	    1.06349	    0.96825;
	130	 1	 0.00	 0.00	 0.0	 0.0	 1	    1.07762	   -6.74502	 225.0	 1	    1.08444	    1.00889;
	131	 1	 128.31	 4.40	 0.0	 0.0	 1	    1.07357	  -10.84785	 225.0	 1	    1.08444	    1.00889;
	132	 2	 9.40	 0.00	 0.0	 0.0	 1	    1.06694	   -8.21903	 90.0	 1	    1.07778	    0.92222;
	133	 1	 2.50	 -0.10	 0.0	 0.0	 1	    0.99614	  -45.61894	 63.0	 1	    1.04762	    0.95238;
	134	 1	 117.18	 28.60	 0.0	 0.0	 1	    1.04344	  -42.03406	 225.0	 1	    1.08889	    1.00444;
	135	 1	 0.00	 0.00	 0.0	 0.0	 1	    1.08613	  -44.95728	 225.0	 1	    1.09072	    1.00444;
	136	 1	 27.47	 0.60	 0.0	 0.0	 1	    1.04817	  -53.32230	 90.0	 1	    1.07778	    0.97778;
	137	 2	 8.10	 -3.80	 0.0	 0.0	 1	    1.03538	   -7.01381	 63.0	 1	    1.06349	    0.96825;
	138	 1	 0.00	 0.00	 0.0	 0.0	 1	    1.06445	   -9.19955	 150.0	 1	    1.08000	    0.96667;
	139	 1	 18.20	 4.10	 0.0	 0.0	 1	    1.06160	  -13.58792	 63.0	 1	    1.07937	    0.92063;
	140	 1	 0.00	 0.00	 0.0	 80.0	 1	    1.08889	   -9.49279	 225.0	 1	    1.08889	    1.00000;
	141	 1	 0.00	 0.00	 0.0	 0.0	 1	    1.09864	   -6.17506	 380.0	 1	    1.10526	    1.05263;
	142	 1	 14.49	 1.10	 0.0	 0.0	 1	    1.05734	  -23.26476	 63.0	 1	    1.07937	    0.95238;
	143	 1	 0.00	 0.00	 0.0	 0.0	 1	    1.07920	  -20.17196	 225.0	 1	    1.08889	    0.98667;
	144	 1	 10.32	 2.50	 0.0	 0.0	 1	    1.07435	  -29.26398	 90.0	 1	    1.11111	    0.95556;
	145	 1	 27.82	 7.70	 0.0	 0.0	 1	    1.07966	  -28.68840	 225.0	 1	    1.08889	    0.96889;
	146	 1	 0.00	 0.00	 0.0	 0.0	 1	    1.09385	  -28.20647	 380.0	 1	    1.10526	    1.00000;
	147	 1	 32.45	 4.60	 0.0	 0.0	 1	    1.03795	  -24.47663	 63.0	 1	    1.06349	    0.93651;
	148	 1	 7.65	 1.50	 0.0	 0.0	 1	    1.03831	  -14.51694	 63.0	 1	    1.06349	    0.93651;
	149	 1	 18.43	 4.20	 0.0	 0.0	 1	    1.04950	  -43.88201	 90.0	 1	    1.06667	    0.97778;
	150	 1	 56.10	 1.00	 0.0	 0.0	 1	    1.04883	  -16.49957	 63.0	 1	    1.06349	    0.93651;
	151	 1	 0.00	 0.00	 0.0	 0.0	 1	    1.00786	  -20.71742	 63.0	 1	    1.06349	    0.96825;
	152	 1	 49.38	 9.40	 0.0	 7.7	 1	    1.00775	  -19.46452	 63.0	 1	    1.06349	    0.96825;
	153	 1	 26.90	 -4.90	 0.0	 0.0	 1	    1.05000	  -18.86599	 63.0	 1	    1.06349	    0.93651;
	154	 1	 0.00	 0.00	 0.0	 0.0	 1	    1.07852	  -16.85713	 225.0	 1	    1.08889	    0.93333;
	155	 2	 0.00	 0.00	 0.0	 0.0	 1	    1.06895	   -2.21726	 63.0	 1	    1.07937	    0.92063;
	156	 1	 0.00	 0.00	 0.0	 0.0	 1	    1.00781	  -20.72266	 63.0	 1	    1.06349	    0.96825;
	157	 1	 -1.40	 -2.30	 0.0	 0.0	 1	    0.93434	  -12.66022	 45.0	 1	    1.00000	    0.88889;
	158	 2	 0.00	 0.00	 0.0	 0.0	 1	    0.98746	  -17.84808	 45.0	 1	    1.00000	    0.88889;
	159	 1	 0.00	 0.00	 0.0	 0.0	 1	    1.04562	  -18.56176	 63.0	 1	    1.06349	    0.93651;
	160	 1	 45.90	 5.70	 0.0	 0.0	 1	    1.06153	  -26.67730	 225.0	 1	    1.08889	    0.88889;
	161	 1	 47.06	 10.80	 0.0	 0.0	 1	    1.06131	  -26.67905	 225.0	 1	    1.08889	    0.88889;
	162	 1	 -0.10	 -1.20	 0.0	 0.0	 1	    1.05890	  -11.01033	 90.0	 1	    1.06667	    0.97778;
	163	 1	 0.00	 0.00	 0.0	 0.0	 1	    1.03415	  -25.74536	 63.0	 1	    1.07937	    0.95238;
	164	 1	 0.00	 0.00	 0.0	 0.0	 1	    1.03415	  -25.74536	 63.0	 1	    1.07937	    0.95238;
	165	 1	 14.49	 6.70	 0.0	 0.0	 1	    1.08041	  -38.95969	 20.0	 1	    1.15000	    0.80000;
	166	 1	 8.10	 -0.30	 0.0	 0.0	 1	    1.05391	  -43.53213	 90.0	 1	    1.06667	    0.97778;
	167	 1	 8.30	 -2.00	 0.0	 0.0	 1	    1.04498	  -43.97248	 90.0	 1	    1.06667	    0.97778;
	168	 1	 0.00	 0.00	 0.0	 0.0	 1	    1.08048	  -38.95400	 225.0	 1	    1.08444	    1.00444;
	169	 1	 9.10	 -0.50	 0.0	 0.0	 1	    1.03334	  -31.34292	 90.0	 1	    1.06667	    0.97778;
	170	 1	 91.34	 13.10	 0.0	 0.0	 1	    1.05015	  -43.66106	 90.0	 1	    1.07778	    0.97778;
	171	 1	 26.30	 -0.90	 0.0	 30.0	 1	    1.07027	  -48.84364	 90.0	 1	    1.07921	    0.97778;
	172	 1	 0.00	 0.00	 0.0	 0.0	 1	    1.08018	  -44.51565	 225.0	 1	    1.08889	    1.00444;
	173	 1	 33.50	 8.20	 0.0	 0.0	 1	    1.07742	  -25.74537	 90.0	 1	    1.08889	    0.93333;
	174	 1	 63.52	 9.70	 0.0	 0.0	 1	    1.07813	  -34.27791	 90.0	 1	    1.11111	    0.95556;
	175	 1	 0.00	 0.00	 0.0	 0.0	 1	    1.02497	   -8.61534	 63.0	 1	    1.07937	    0.92063;
	176	 2	 0.00	 0.00	 0.0	 0.0	 1	    1.09723	   -3.84896	 150.0	 1	    1.10000	    0.90000;
	177	 1	 0.00	 0.00	 0.0	 0.0	 1	    1.07576	  -32.56533	 225.0	 1	    1.08889	    1.00444;
	178	 1	 0.00	 0.00	 0.0	 0.0	 1	    1.07576	  -32.56533	 225.0	 1	    1.08889	    1.00444;
	179	 1	 0.00	 0.00	 0.0	 0.0	 1	    1.02343	  -26.53675	 63.0	 1	    1.04762	    0.95238;
	180	 1	 0.00	 0.00	 0.0	 0.0	 1	    1.07576	  -32.56532	 225.0	 1	    1.08889	    1.00444;
	181	 1	 14.20	 -5.00	 0.0	 0.0	 1	    1.05179	  -20.78646	 63.0	 1	    1.07937	    0.92063;
	182	 1	 17.39	 4.10	 0.0	 0.0	 1	    1.04595	  -14.90212	 63.0	 1	    1.06349	    0.93651;
	183	 1	 6.20	 -0.70	 0.0	 0.0	 1	    1.05376	  -27.69947	 63.0	 1	    1.07937	    0.95238;
	184	 1	 4.64	 1.40	 0.0	 0.0	 1	    1.07287	  -42.66841	 90.0	 1	    1.07778	    0.97778;
	185	 1	 32.57	 2.70	 0.0	 0.0	 1	    1.04788	  -24.32227	 63.0	 1	    1.07937	    0.95238;
	186	 1	 0.46	 1.30	 0.0	 0.0	 1	    1.02510	  -22.21554	 90.0	 1	    1.06667	    0.97778;
	187	 2	 0.00	 0.00	 0.0	 0.0	 1	    1.05002	   -8.25163	 63.0	 1	    1.07937	    0.92063;
	188	 1	 0.00	 0.00	 0.0	 0.0	 1	    1.00241	   -9.84915	 63.0	 1	    1.10211	    0.92063;
	189	 1	 19.01	 2.10	 0.0	 0.0	 1	    1.03439	  -10.97738	 63.0	 1	    1.07937	    0.92063;
	190	 2	 0.00	 0.00	 0.0	 0.0	 1	    0.96715	  -14.09073	 45.0	 1	    1.00000	    0.88889;
	191	 1	 14.30	 -1.20	 0.0	 0.0	 1	    1.03509	  -31.02907	 90.0	 1	    1.06667	    0.97778;
	192	 1	 7.20	 -2.00	 0.0	 0.0	 1	    1.07603	   -1.55921	 63.0	 1	    1.07937	    0.92063;
	193	 1	 -0.30	 0.80	 0.0	 0.0	 1	    1.06152	  -37.89321	 225.0	 1	    1.08889	    1.00444;
	194	 2	 0.70	 -2.20	 0.0	 0.0	 1	    1.01507	  -17.83930	 63.0	 1	    1.07937	    0.92063;
	195	 1	 0.00	 0.00	 0.0	 0.0	 1	    1.07000	  -42.13671	 63.0	 1	    1.07545	    0.95238;
	196	 1	 0.00	 0.00	 0.0	 0.0	 1	    1.07000	  -42.13675	 63.0	 1	    1.07546	    0.95238;
	197	 1	 31.64	 0.80	 0.0	 15.0	 1	    1.02364	  -19.10544	 63.0	 1	    1.07937	    0.92063;
	198	 1	 10.00	 -0.70	 0.0	 0.0	 1	    1.03132	  -15.89729	 63.0	 1	    1.07937	    0.92063;
	199	 1	 13.21	 1.50	 0.0	 0.0	 1	    1.01797	  -51.17615	 90.0	 1	    1.06667	    0.97778;
	200	 1	 0.00	 0.00	 0.0	 0.0	 1	    1.06597	  -12.53019	 225.0	 1	    1.08889	    1.00000;
	201	 1	 72.56	 22.90	 0.0	 0.0	 1	    1.05067	  -28.21277	 225.0	 1	    1.08889	    0.88889;
	202	 1	 55.75	 0.60	 0.0	 0.0	 1	    1.00679	  -23.13626	 63.0	 1	    1.06349	    0.96825;
	203	 1	 27.12	 3.70	 0.0	 0.0	 1	    1.07694	  -19.08243	 90.0	 1	    1.10000	    0.94444;
	204	 1	 0.00	 0.00	 0.0	 0.0	 1	    1.08517	  -23.88430	 225.0	 1	    1.08889	    0.96889;
	205	 1	 0.00	 0.00	 0.0	 0.0	 1	    1.10101	  -22.63895	 380.0	 1	    1.10526	    1.00000;
	206	 1	 58.65	 6.40	 0.0	 0.0	 1	    1.02596	  -20.65136	 63.0	 1	    1.06349	    0.96825;
	207	 1	 38.02	 5.00	 0.0	 0.0	 1	    1.02463	  -10.39264	 63.0	 1	    1.06349	    0.96825;
	208	 1	 18.00	 -0.40	 0.0	 0.0	 1	    1.04814	  -43.53474	 90.0	 1	    1.07778	    0.97778;
	209	 1	 0.70	 1.40	 0.0	 0.0	 1	    1.04218	  -13.62572	 63.0	 1	    1.06349	    0.96825;
	210	 1	 47.64	 6.80	 0.0	 0.0	 1	    1.02416	   -9.96861	 63.0	 1	    1.06349	    0.96825;
	211	 1	 32.57	 13.40	 0.0	 0.0	 1	    1.02422	   -9.80133	 63.0	 1	    1.06349	    0.96825;
	212	 1	 0.00	 0.00	 0.0	 0.0	 1	    1.06995	   -9.74333	 225.0	 1	    1.08444	    1.00889;
	213	 1	 0.00	 0.00	 0.0	 0.0	 1	    1.06990	   -9.72489	 225.0	 1	    1.08444	    1.00889;
	214	 1	 47.41	 3.50	 0.0	 30.4	 1	    1.06059	  -49.38553	 90.0	 1	    1.07778	    0.97778;
	215	 1	 0.00	 0.00	 0.0	 0.0	 1	    1.07105	  -45.09297	 225.0	 1	    1.08889	    1.00444;
	216	 1	 20.60	 -4.00	 0.0	 0.0	 1	    1.01507	  -28.97188	 63.0	 1	    1.06349	    0.95238;
	217	 1	 30.83	 2.70	 0.0	 0.0	 1	    1.02481	  -36.87316	 90.0	 1	    1.06667	    0.97778;
	218	 1	 -0.60	 1.10	 0.0	 0.0	 1	    1.02661	  -13.48534	 90.0	 1	    1.06667	    0.97778;
	219	 1	 12.00	 -3.20	 0.0	 0.0	 1	    1.05179	  -26.90257	 90.0	 1	    1.06812	    0.97778;
	220	 1	 14.72	 1.40	 0.0	 0.0	 1	    1.02361	  -20.89800	 63.0	 1	    1.07937	    0.95238;
	221	 1	 8.60	 -3.80	 0.0	 0.0	 1	    1.04614	  -18.38531	 63.0	 1	    1.06349	    0.93651;
	222	 1	 0.00	 0.00	 0.0	 0.0	 1	    1.09174	  -13.88992	 225.0	 1	    1.09432	    0.93333;
	223	 1	 41.40	 -0.10	 0.0	 0.0	 1	    1.02381	  -15.62309	 63.0	 1	    1.07937	    0.92063;
	224	 2	 0.00	 0.00	 0.0	 0.0	 1	    1.09718	   -3.84799	 150.0	 1	    1.10000	    0.90000;
	225	 1	 77.43	 4.80	 0.0	 0.0	 1	    1.07990	   -9.20562	 225.0	 1	    1.08444	    1.00889;
	226	 1	 77.43	 43.80	 0.0	 0.0	 1	    1.07929	   -9.19960	 225.0	 1	    1.08444	    1.00889;
	227	 1	 5.00	 -1.80	 0.0	 0.0	 1	    1.02147	  -63.78870	 63.0	 1	    1.06349	    0.95238;
	228	 1	 10.90	 -2.00	 0.0	 0.0	 1	    1.01761	  -64.31975	 63.0	 1	    1.06349	    0.95238;
	229	 1	 10.50	 -3.10	 0.0	 0.0	 1	    1.05873	  -15.93049	 63.0	 1	    1.07937	    0.92063;
	230	 1	 0.00	 0.00	 0.0	 0.0	 1	    1.07986	   -9.03768	 225.0	 1	    1.08889	    0.97778;
	231	 1	 7.00	 -1.40	 0.0	 0.0	 1	    1.04581	  -30.66946	 90.0	 1	    1.06667	    0.97778;
	232	 1	 5.91	 0.90	 0.0	 0.0	 1	    1.08791	    2.82847	 90.0	 1	    1.08889	    0.93333;
	233	 1	 0.00	 0.00	 0.0	 0.0	 1	    1.07082	  -31.12363	 20.0	 1	    1.15000	    0.80000;
	234	 1	 26.66	 7.10	 0.0	 0.0	 1	    1.07082	  -31.12363	 90.0	 1	    1.08889	    0.93333;
	235	 1	 17.27	 2.20	 0.0	 0.0	 1	    1.08674	  -27.49866	 225.0	 1	    1.08889	    0.88889;
	236	 1	 27.59	 1.30	 0.0	 0.0	 1	    1.04614	  -27.82710	 90.0	 1	    1.07778	    0.92222;
	237	 1	 46.94	 3.20	 0.0	 0.0	 1	    1.04777	  -19.53962	 63.0	 1	    1.06349	    0.93651;
	238	 1	 25.00	 -2.50	 0.0	 0.0	 1	    1.04496	  -30.39241	 90.0	 1	    1.06667	    0.97778;
	239	 1	 60.39	 2.00	 0.0	 0.0	 1	    1.02082	  -65.73271	 63.0	 1	    1.06349	    0.95238;
	240	 1	 54.01	 6.60	 0.0	 0.0	 1	    1.03337	  -15.77863	 63.0	 1	    1.07937	    0.92063;
	241	 1	 61.32	 7.40	 0.0	 0.0	 1	    1.02320	  -18.98179	 90.0	 1	    1.07778	    0.92222;
	242	 1	 65.26	 9.30	 0.0	 0.0	 1	    1.01386	  -19.72065	 63.0	 1	    1.06349	    0.96825;
	243	 1	 27.70	 -3.40	 0.0	 0.0	 1	    1.01887	  -21.86746	 63.0	 1	    1.07937	    0.92063;
	244	 1	 60.62	 2.20	 0.0	 0.0	 1	    1.03629	  -13.25900	 90.0	 1	    1.07778	    0.92222;
	245	 1	 13.70	 -2.20	 0.0	 0.0	 1	    1.00246	  -19.68242	 63.0	 1	    1.07937	    0.92063;
	246	 2	 12.17	 3.90	 0.0	 0.0	 1	    1.02335	  -13.06270	 63.0	 1	    1.06349	    0.93651;
	247	 1	 0.00	 0.00	 0.0	 0.0	 1	    1.05511	  -11.57652	 225.0	 1	    1.08889	    0.93333;
	248	 1	 37.55	 13.60	 0.0	 0.0	 1	    1.07560	  -38.82044	 225.0	 1	    1.08889	    1.00444;
	249	 1	 22.80	 -2.70	 0.0	 0.0	 1	    1.03105	  -23.28507	 63.0	 1	    1.07937	    0.92063;
	250	 1	 26.20	 -8.10	 0.0	 0.0	 1	    1.03937	  -31.06896	 63.0	 1	    1.07937	    0.95238;
	251	 1	 13.10	 1.70	 0.0	 0.0	 1	    1.03648	  -42.85359	 90.0	 1	    1.06667	    0.97778;
	252	 1	 10.10	 -2.20	 0.0	 0.0	 1	    1.02367	  -23.72781	 90.0	 1	    1.06667	    0.97778;
	253	 1	 58.77	 3.90	 0.0	 0.0	 1	    1.04584	  -30.49838	 63.0	 1	    1.07937	    0.95238;
	254	 1	 20.63	 3.60	 0.0	 0.0	 1	    1.05372	  -28.56154	 63.0	 1	    1.07937	    0.95238;
	255	 1	 12.17	 2.10	 0.0	 0.0	 1	    1.03265	  -22.50965	 63.0	 1	    1.06349	    0.93651;
	256	 2	 2.80	 0.00	 0.0	 0.0	 1	    1.02510	  -12.71009	 63.0	 1	    1.07937	    0.92063;
	257	 1	 0.00	 0.00	 0.0	 0.0	 1	    1.06355	  -12.69760	 225.0	 1	    1.08889	    1.00000;
	258	 2	 -0.00	 0.00	 0.0	 0.0	 1	    1.07924	    2.02978	 90.0	 1	    1.07924	    0.92222;
	259	 1	 37.44	 3.10	 0.0	 0.0	 1	    1.06563	  -29.19388	 63.0	 1	    1.07937	    0.95238;
	260	 1	 0.00	 0.00	 0.0	 0.0	 1	    1.08154	  -26.69605	 225.0	 1	    1.08889	    0.98667;
	261	 2	 0.00	 0.00	 0.0	 0.0	 1	    1.02577	    0.38777	 63.0	 1	    1.07937	    0.92063;
	262	 1	 0.00	 0.00	 0.0	 80.0	 1	    1.06748	  -26.91461	 225.0	 1	    1.08889	    0.88889;
	263	 1	 0.00	 0.00	 0.0	 0.0	 1	    1.05599	  -27.37612	 225.0	 1	    1.08889	    0.88889;
	264	 1	 0.00	 0.00	 0.0	 0.0	 1	    1.06939	  -24.00697	 380.0	 1	    1.10526	    1.01316;
	265	 1	 0.00	 0.00	 0.0	 0.0	 1	    1.00969	  -44.20409	 63.0	 1	    1.04762	    0.95238;
	266	 1	 34.43	 8.40	 0.0	 0.0	 1	    1.07902	  -38.97072	 225.0	 1	    1.08889	    1.00444;
	267	 1	 75.92	 9.90	 0.0	 0.0	 1	    1.08499	  -39.70010	 225.0	 1	    1.08889	    1.00444;
	268	 1	 15.30	 13.10	 0.0	 0.0	 1	    1.01714	  -12.53772	 63.0	 1	    1.07937	    0.92063;
	269	 1	 28.40	 1.60	 0.0	 0.0	 1	    1.01677	  -18.16362	 63.0	 1	    1.07937	    0.92063;
	270	 1	 0.00	 0.00	 0.0	 0.0	 1	    1.07393	   -7.95945	 225.0	 1	    1.08889	    0.97778;
	271	 1	 0.00	 0.00	 0.0	 0.0	 1	    1.07381	   -8.00892	 225.0	 1	    1.08889	    0.97778;
	272	 1	 51.23	 6.90	 0.0	 0.0	 1	    1.04489	  -14.04530	 63.0	 1	    1.06349	    0.96825;
	273	 1	 34.19	 5.00	 0.0	 0.0	 1	    1.06975	   -8.59469	 225.0	 1	    1.08444	    1.00889;
	274	 1	 61.78	 7.50	 0.0	 0.0	 1	    1.07899	  -34.34289	 90.0	 1	    1.10000	    0.94444;
	275	 1	 0.00	 0.00	 0.0	 0.0	 1	    1.08341	  -32.35017	 225.0	 1	    1.08444	    1.00444;
	276	 1	 0.00	 0.00	 0.0	 0.0	 1	    1.10212	  -25.81247	 380.0	 1	    1.10263	    1.04211;
	277	 1	 2.09	 3.00	 0.0	 0.0	 1	    1.05099	  -35.50619	 90.0	 1	    1.06667	    0.97778;
	278	 1	 -1.70	 4.60	 0.0	 0.0	 1	    1.08305	  -32.41465	 225.0	 1	    1.08444	    1.00444;
	279	 1	 12.00	 -1.10	 0.0	 0.0	 1	    1.01950	  -32.98869	 63.0	 1	    1.06349	    0.93651;
	280	 1	 56.56	 7.70	 0.0	 0.0	 1	    1.06133	  -48.04084	 90.0	 1	    1.07778	    0.97778;
	281	 1	 11.80	 -0.00	 0.0	 0.0	 1	    1.06428	  -17.90523	 63.0	 1	    1.07937	    0.95238;
	282	 2	 0.00	 0.00	 0.0	 0.0	 1	    1.02336	  -13.06272	 63.0	 1	    1.06349	    0.93651;
	283	 1	 10.80	 -1.00	 0.0	 0.0	 1	    1.03308	  -43.95956	 90.0	 1	    1.06667	    0.97778;
	284	 1	 18.66	 3.10	 0.0	 0.0	 1	    1.02250	  -19.40112	 63.0	 1	    1.07937	    0.95238;
	285	 1	 0.35	 5.70	 0.0	 0.0	 1	    1.07801	  -38.31984	 225.0	 1	    1.08889	    1.00444;
	286	 1	 36.28	 25.50	 0.0	 0.0	 1	    1.07779	  -38.33586	 225.0	 1	    1.08889	    1.00444;
	287	 1	 27.80	 -2.00	 0.0	 0.0	 1	    1.03505	  -28.97033	 90.0	 1	    1.06667	    0.97778;
	288	 1	 34.70	 -1.10	 0.0	 0.0	 1	    1.03538	  -32.98089	 90.0	 1	    1.06667	    0.97778;
	289	 1	 27.30	 -6.60	 0.0	 0.0	 1	    1.06951	  -19.34639	 225.0	 1	    1.08985	    0.88889;
	290	 1	 3.94	 3.90	 0.0	 0.0	 1	    1.07742	  -28.49549	 90.0	 1	    1.11111	    0.95556;
	291	 1	 14.30	 -1.90	 0.0	 0.0	 1	    1.02753	  -20.24104	 63.0	 1	    1.07937	    0.92063;
	292	 1	 0.00	 0.50	 0.0	 0.0	 1	    1.03229	  -15.66493	 63.0	 1	    1.06349	    0.93651;
	293	 1	 43.00	 -1.70	 0.0	 0.0	 1	    1.03231	  -15.66549	 63.0	 1	    1.06349	    0.93651;
	294	 1	 0.00	 -0.90	 0.0	 0.0	 1	    1.03754	  -24.81387	 63.0	 1	    1.07937	    0.95238;
	295	 1	 24.69	 4.30	 0.0	 0.0	 1	    1.06310	  -28.61958	 225.0	 1	    1.08889	    0.88889;
	296	 1	 8.00	 -0.60	 0.0	 0.0	 1	    1.07937	  -10.49194	 63.0	 1	    1.07937	    0.95238;
	297	 1	 1.00	 -1.00	 0.0	 0.0	 1	    1.02117	  -26.09807	 63.0	 1	    1.06349	    0.93651;
	298	 1	 13.00	 0.00	 0.0	 0.0	 1	    1.02212	   -6.53355	 63.0	 1	    1.06349	    0.93651;
	299	 1	 0.00	 0.10	 0.0	 0.0	 1	    1.07130	  -25.24524	 90.0	 1	    1.11111	    0.95556;
	300	 1	 63.05	 17.40	 0.0	 0.0	 1	    1.08198	  -24.61142	 225.0	 1	    1.08889	    0.88889;
	301	 1	 3.83	 0.10	 0.0	 0.0	 1	    1.02263	  -11.74293	 63.0	 1	    1.06349	    0.96825;
	302	 1	 18.89	 3.70	 0.0	 0.0	 1	    1.03574	  -18.22038	 63.0	 1	    1.06349	    0.93651;
	303	 1	 48.57	 10.90	 0.0	 0.0	 1	    0.99086	  -22.39708	 63.0	 1	    1.07937	    0.92063;
	304	 1	 35.50	 -0.50	 0.0	 0.0	 1	    1.03080	  -20.35765	 63.0	 1	    1.06349	    0.96825;
	305	 2	 0.00	 0.00	 0.0	 0.0	 1	    1.05341	  -15.78849	 63.0	 1	    1.07088	    0.93651;
	306	 1	 13.90	 -1.50	 0.0	 0.0	 1	    1.04477	  -21.05373	 63.0	 1	    1.07937	    0.95238;
	307	 1	 19.20	 -2.80	 0.0	 0.0	 1	    1.01177	  -51.98191	 90.0	 1	    1.06667	    0.97778;
	308	 1	 0.70	 0.20	 0.0	 0.0	 1	    1.01489	   -9.07321	 63.0	 1	    1.07937	    0.92063;
	309	 1	 8.11	 2.50	 0.0	 0.0	 1	    1.05802	  -23.65796	 63.0	 1	    1.06349	    0.96825;
	310	 1	 13.91	 3.50	 0.0	 0.0	 1	    1.05832	  -23.68489	 63.0	 1	    1.06349	    0.96825;
	311	 1	 1.50	 -0.00	 0.0	 0.0	 1	    1.02388	  -28.14281	 90.0	 1	    1.06667	    0.97778;
	312	 1	 -2.50	 -0.80	 0.0	 0.0	 1	    1.06368	  -14.50802	 90.0	 1	    1.07778	    0.92222;
	313	 1	 35.58	 3.20	 0.0	 0.0	 1	    1.04228	  -18.06116	 63.0	 1	    1.07937	    0.92063;
	314	 1	 0.00	 0.00	 0.0	 0.0	 1	    1.07102	  -13.76437	 225.0	 1	    1.08889	    1.00000;
	315	 1	 20.80	 -1.10	 0.0	 0.0	 1	    1.07217	  -42.83245	 90.0	 1	    1.07778	    0.97778;
	316	 1	 33.15	 7.20	 0.0	 0.0	 1	    1.04736	  -14.06407	 63.0	 1	    1.07937	    0.92063;
	317	 2	 0.00	 0.00	 0.0	 0.0	 1	    1.06345	   -5.94485	 63.0	 1	    1.07937	    0.92063;
	318	 1	 15.42	 4.10	 0.0	 0.0	 1	    1.02652	  -41.24826	 63.0	 1	    1.04762	    0.95238;