%%%%%%%%%%%%%%%%%%%%%%%%%%%%%%%%%%%%%%%%%%%%%%%%%%%%%%%%%%%%%%%%%%%%%%%%%%%
%%%%                                                                  %%%%%
%%%%    IEEE PES Power Grid Library - Optimal Power Flow - v17.07     %%%%%
%%%%          (https://github.com/power-grid-lib/pglib-opf)           %%%%%
%%%%             Benchmark Group - Active Power Increase              %%%%%
%%%%                         27 - June - 2017                         %%%%%
%%%%                                                                  %%%%%
%%%%%%%%%%%%%%%%%%%%%%%%%%%%%%%%%%%%%%%%%%%%%%%%%%%%%%%%%%%%%%%%%%%%%%%%%%%
function mpc = pglib_opf_case30_as__api
mpc.version = '2';
mpc.baseMVA = 100.0;

%% area data
%	area	refbus
mpc.areas = [
	1	 1;
];

%% bus data
%	bus_i	type	Pd	Qd	Gs	Bs	area	Vm	Va	baseKV	zone	Vmax	Vmin
mpc.bus = [
	1	 3	 0.00	 0.00	 0.0	 0.0	 1	    1.05000	    0.00000	 135.0	 1	    1.05000	    0.95000;
	2	 2	 43.02	 12.70	 0.0	 0.0	 1	    1.10000	   -0.36306	 135.0	 1	    1.10000	    0.95000;
	3	 1	 4.76	 1.20	 0.0	 0.0	 1	    1.04056	   -4.05706	 135.0	 1	    1.05000	    0.95000;
	4	 1	 15.07	 1.60	 0.0	 0.0	 1	    1.03828	   -4.81198	 135.0	 1	    1.05000	    0.95000;
	5	 1	 186.73	 19.00	 0.0	 0.0	 1	    1.05000	    0.57692	 135.0	 1	    1.05000	    0.95000;
	6	 1	 0.00	 0.00	 0.0	 0.0	 1	    1.03825	   -5.12364	 135.0	 1	    1.05000	    0.95000;
	7	 1	 45.20	 10.90	 0.0	 0.0	 1	    1.02791	   -3.84478	 135.0	 1	    1.05000	    0.95000;
	8	 1	 59.47	 30.00	 0.0	 0.0	 1	    1.05000	   -4.97717	 135.0	 1	    1.05000	    0.95000;
	9	 1	 0.00	 0.00	 0.0	 0.0	 1	    1.02699	  -10.63387	 135.0	 1	    1.05000	    0.95000;
	10	 1	 11.50	 2.00	 0.0	 5.26	 1	    1.01388	  -14.47388	 135.0	 1	    1.05000	    0.95000;
	11	 1	 0.00	 0.00	 0.0	 0.0	 1	    1.05000	   -9.06777	 135.0	 1	    1.05000	    0.95000;
	12	 1	 22.20	 7.50	 0.0	 0.0	 1	    1.01690	  -13.67737	 135.0	 1	    1.05000	    0.95000;
	13	 2	 0.00	 0.00	 0.0	 0.0	 1	    1.03025	  -12.53851	 135.0	 1	    1.10000	    0.95000;
	14	 1	 12.29	 1.60	 0.0	 0.0	 1	    0.99630	  -15.64941	 135.0	 1	    1.05000	    0.95000;
	15	 1	 16.25	 2.50	 0.0	 0.0	 1	    0.99349	  -15.93597	 135.0	 1	    1.05000	    0.95000;
	16	 1	 6.94	 1.80	 0.0	 0.0	 1	    1.00497	  -14.71469	 135.0	 1	    1.05000	    0.95000;
	17	 1	 17.84	 5.80	 0.0	 0.0	 1	    1.00365	  -15.06584	 135.0	 1	    1.05000	    0.95000;
	18	 1	 6.34	 0.90	 0.0	 0.0	 1	    0.98027	  -17.05660	 135.0	 1	    1.05000	    0.95000;
	19	 1	 18.83	 3.40	 0.0	 0.0	 1	    0.97784	  -17.27407	 135.0	 1	    1.05000	    0.95000;
	20	 1	 4.36	 0.70	 0.0	 0.0	 1	    0.98551	  -16.69527	 135.0	 1	    1.05000	    0.95000;
	21	 1	 34.69	 11.20	 0.0	 0.0	 1	    1.00054	  -15.74428	 135.0	 1	    1.05000	    0.95000;
	22	 2	 0.00	 0.00	 0.0	 0.0	 1	    1.00289	  -15.75458	 135.0	 1	    1.10000	    0.95000;
	23	 2	 6.34	 1.60	 0.0	 0.0	 1	    0.99276	  -16.98468	 135.0	 1	    1.10000	    0.95000;
	24	 1	 17.25	 6.70	 0.0	 25.0	 1	    1.00495	  -17.50539	 135.0	 1	    1.05000	    0.95000;
	25	 1	 0.00	 0.00	 0.0	 0.0	 1	    0.99881	  -16.09433	 135.0	 1	    1.05000	    0.95000;
	26	 1	 6.94	 2.30	 0.0	 0.0	 1	    0.97141	  -17.30623	 135.0	 1	    1.05000	    0.95000;
	27	 2	 0.00	 0.00	 0.0	 0.0	 1	    1.00798	  -14.54398	 135.0	 1	    1.10000	    0.95000;
	28	 1	 0.00	 0.00	 0.0	 0.0	 1	    1.03226	   -5.99139	 135.0	 1	    1.05000	    0.95000;
	29	 1	 4.76	 0.90	 0.0	 0.0	 1	    0.97177	  -17.28118	 135.0	 1	    1.05000	    0.95000;
	30	 1	 21.01	 1.90	 0.0	 0.0	 1	    0.95000	  -19.24521	 135.0	 1	    1.05000	    0.95000;
];

%% generator data
%	bus	Pg	Qg	Qmax	Qmin	Vg	mBase	status	Pmax	Pmin	Pc1	Pc2	Qc1min	Qc1max	Qc2min	Qc2max	ramp_agc	ramp_10	ramp_30	ramp_q	apf
mpc.gen = [
	1	 25.0	 -91.679	 250.0	 -120.0	 1.05	 100.0	 1	 70	 25.0	 0.0	 0.0	 0.0	 0.0	 0.0	 0.0	 0.0	 0.0	 0.0	 0.0	 0.0; % COW
	2	 176.363	 168.737	 217.2	 -217.2	 1.1	 100.0	 1	 203	 10.0	 0.0	 0.0	 0.0	 0.0	 0.0	 0.0	 0.0	 0.0	 0.0	 0.0	 0.0; % NG
	5	 259.612	 -14.761	 197.0	 -197.0	 1.05	 100.0	 1	 393	 7.5	 0.0	 0.0	 0.0	 0.0	 0.0	 0.0	 0.0	 0.0	 0.0	 0.0	 0.0; % NG
	8	 84.791	 59.747	 60.0	 -64.8	 1.05	 100.0	 1	 107	 5.0	 0.0	 0.0	 0.0	 0.0	 0.0	 0.0	 0.0	 0.0	 0.0	 0.0	 0.0; % PEL
	11	 14.169	 11.811	 50.0	 -29.0	 1.05	 100.0	 1	 57	 5.0	 0.0	 0.0	 0.0	 0.0	 0.0	 0.0	 0.0	 0.0	 0.0	 0.0	 0.0; % PEL
	13	 14.873	 9.976	 60.0	 -21.0	 1.03025	 100.0	 1	 41	 6.0	 0.0	 0.0	 0.0	 0.0	 0.0	 0.0	 0.0	 0.0	 0.0	 0.0	 0.0; % NG
];

%% generator cost data
%	2	startup	shutdown	n	c(n-1)	...	c0
mpc.gencost = [
	2	 0.0	 0.0	 3	   0.000000	   0.869849	   0.000000; % COW
	2	 0.0	 0.0	 3	   0.000000	   1.327922	   0.000000; % NG
	2	 0.0	 0.0	 3	   0.000000	   1.387081	   0.000000; % NG
	2	 0.0	 0.0	 3	   0.000000	   7.253208	   0.000000; % PEL
	2	 0.0	 0.0	 3	   0.000000	   7.394936	   0.000000; % PEL
	2	 0.0	 0.0	 3	   0.000000	   0.981425	   0.000000; % NG
];

%% branch data
%	fbus	tbus	r	x	b	rateA	rateB	rateC	ratio	angle	status	angmin	angmax
mpc.branch = [
	1	 2	 0.0192	 0.0575	 0.0264	 130.0	 130.0	 130.0	 0.0	 0.0	 1	 -30.0	 30.0;
	1	 3	 0.0452	 0.1852	 0.0204	 130.0	 130.0	 130.0	 0.0	 0.0	 1	 -30.0	 30.0;
	2	 4	 0.057	 0.1737	 0.0184	 65.0	 65.0	 65.0	 0.0	 0.0	 1	 -30.0	 30.0;
	3	 4	 0.0132	 0.0379	 0.0042	 130.0	 130.0	 130.0	 0.0	 0.0	 1	 -30.0	 30.0;
	2	 5	 0.0472	 0.1983	 0.0209	 130.0	 130.0	 130.0	 0.0	 0.0	 1	 -30.0	 30.0;
	2	 6	 0.0581	 0.1763	 0.0187	 65.0	 65.0	 65.0	 0.0	 0.0	 1	 -30.0	 30.0;
	4	 6	 0.0119	 0.0414	 0.0045	 90.0	 90.0	 90.0	 0.0	 0.0	 1	 -30.0	 30.0;
	5	 7	 0.046	 0.116	 0.0102	 70.0	 70.0	 70.0	 0.0	 0.0	 1	 -30.0	 30.0;
	6	 7	 0.0267	 0.082	 0.0085	 130.0	 130.0	 130.0	 0.0	 0.0	 1	 -30.0	 30.0;
	6	 8	 0.012	 0.042	 0.0045	 32.0	 32.0	 32.0	 0.0	 0.0	 1	 -30.0	 30.0;
	6	 9	 0.0	 0.208	 0.0	 65.0	 65.0	 65.0	 0.0	 0.0	 1	 -30.0	 30.0;
	6	 10	 0.0	 0.556	 0.0	 32.0	 32.0	 32.0	 0.0	 0.0	 1	 -30.0	 30.0;
	9	 11	 0.0	 0.208	 0.0	 65.0	 65.0	 65.0	 0.0	 0.0	 1	 -30.0	 30.0;
	9	 10	 0.0	 0.11	 0.0	 65.0	 65.0	 65.0	 0.0	 0.0	 1	 -30.0	 30.0;
	4	 12	 0.0	 0.256	 0.0	 65.0	 65.0	 65.0	 0.0	 0.0	 1	 -30.0	 30.0;
	12	 13	 0.0	 0.14	 0.0	 65.0	 65.0	 65.0	 0.0	 0.0	 1	 -30.0	 30.0;
	12	 14	 0.1231	 0.2559	 0.0	 32.0	 32.0	 32.0	 0.0	 0.0	 1	 -30.0	 30.0;
	12	 15	 0.0662	 0.1304	 0.0	 32.0	 32.0	 32.0	 0.0	 0.0	 1	 -30.0	 30.0;
	12	 16	 0.0945	 0.1987	 0.0	 32.0	 32.0	 32.0	 0.0	 0.0	 1	 -30.0	 30.0;
	14	 15	 0.221	 0.1997	 0.0	 16.0	 16.0	 16.0	 0.0	 0.0	 1	 -30.0	 30.0;
	16	 17	 0.0824	 0.1932	 0.0	 16.0	 16.0	 16.0	 0.0	 0.0	 1	 -30.0	 30.0;
	15	 18	 0.107	 0.2185	 0.0	 16.0	 16.0	 16.0	 0.0	 0.0	 1	 -30.0	 30.0;
	18	 19	 0.0639	 0.1292	 0.0	 16.0	 16.0	 16.0	 0.0	 0.0	 1	 -30.0	 30.0;
	19	 20	 0.034	 0.068	 0.0	 32.0	 32.0	 32.0	 0.0	 0.0	 1	 -30.0	 30.0;
	10	 20	 0.0936	 0.209	 0.0	 32.0	 32.0	 32.0	 0.0	 0.0	 1	 -30.0	 30.0;
	10	 17	 0.0324	 0.0845	 0.0	 32.0	 32.0	 32.0	 0.0	 0.0	 1	 -30.0	 30.0;
	10	 21	 0.0348	 0.0749	 0.0	 32.0	 32.0	 32.0	 0.0	 0.0	 1	 -30.0	 30.0;
	10	 22	 0.0727	 0.1499	 0.0	 32.0	 32.0	 32.0	 0.0	 0.0	 1	 -30.0	 30.0;
	21	 22	 0.0116	 0.0236	 0.0	 32.0	 32.0	 32.0	 0.0	 0.0	 1	 -30.0	 30.0;
	15	 23	 0.1	 0.202	 0.0	 16.0	 16.0	 16.0	 0.0	 0.0	 1	 -30.0	 30.0;
	22	 24	 0.115	 0.179	 0.0	 16.0	 16.0	 16.0	 0.0	 0.0	 1	 -30.0	 30.0;
	23	 24	 0.132	 0.27	 0.0	 16.0	 16.0	 16.0	 0.0	 0.0	 1	 -30.0	 30.0;
	24	 25	 0.1885	 0.3292	 0.0	 16.0	 16.0	 16.0	 0.0	 0.0	 1	 -30.0	 30.0;
	25	 26	 0.2544	 0.38	 0.0	 16.0	 16.0	 16.0	 0.0	 0.0	 1	 -30.0	 30.0;
	25	 27	 0.1093	 0.2087	 0.0	 16.0	 16.0	 16.0	 0.0	 0.0	 1	 -30.0	 30.0;
	28	 27	 0.0	 0.396	 0.0	 65.0	 65.0	 65.0	 0.0	 0.0	 1	 -30.0	 30.0;
	27	 29	 0.2198	 0.4153	 0.0	 16.0	 16.0	 16.0	 0.0	 0.0	 1	 -30.0	 30.0;
	27	 30	 0.3202	 0.6027	 0.0	 16.0	 16.0	 16.0	 0.0	 0.0	 1	 -30.0	 30.0;
	29	 30	 0.2399	 0.4533	 0.0	 16.0	 16.0	 16.0	 0.0	 0.0	 1	 -30.0	 30.0;
	8	 28	 0.0636	 0.2	 0.0214	 32.0	 32.0	 32.0	 0.0	 0.0	 1	 -30.0	 30.0;
	6	 28	 0.0169	 0.0599	 0.0065	 32.0	 32.0	 32.0	 0.0	 0.0	 1	 -30.0	 30.0;
];

% INFO    : === Translation Options ===
% INFO    : Load Model:                  from file ./pglib_opf_case30_as.m.api.sol
% INFO    : Gen Active Capacity Model:   stat
% INFO    : Gen Reactive Capacity Model: al50ag
% INFO    : Gen Active Cost Model:       stat
% INFO    : 
% INFO    : === Load Replacement Notes ===
% INFO    : Bus 1	: Pd=0.0, Qd=0.0 -> Pd=0.00, Qd=0.00
% INFO    : Bus 2	: Pd=21.7, Qd=12.7 -> Pd=43.02, Qd=12.70
% INFO    : Bus 3	: Pd=2.4, Qd=1.2 -> Pd=4.76, Qd=1.20
% INFO    : Bus 4	: Pd=7.6, Qd=1.6 -> Pd=15.07, Qd=1.60
% INFO    : Bus 5	: Pd=94.2, Qd=19.0 -> Pd=186.73, Qd=19.00
% INFO    : Bus 6	: Pd=0.0, Qd=0.0 -> Pd=0.00, Qd=0.00
% INFO    : Bus 7	: Pd=22.8, Qd=10.9 -> Pd=45.20, Qd=10.90
% INFO    : Bus 8	: Pd=30.0, Qd=30.0 -> Pd=59.47, Qd=30.00
% INFO    : Bus 9	: Pd=0.0, Qd=0.0 -> Pd=0.00, Qd=0.00
% INFO    : Bus 10	: Pd=5.8, Qd=2.0 -> Pd=11.50, Qd=2.00
% INFO    : Bus 11	: Pd=0.0, Qd=0.0 -> Pd=0.00, Qd=0.00
% INFO    : Bus 12	: Pd=11.2, Qd=7.5 -> Pd=22.20, Qd=7.50
% INFO    : Bus 13	: Pd=0.0, Qd=0.0 -> Pd=0.00, Qd=0.00
% INFO    : Bus 14	: Pd=6.2, Qd=1.6 -> Pd=12.29, Qd=1.60
% INFO    : Bus 15	: Pd=8.2, Qd=2.5 -> Pd=16.25, Qd=2.50
% INFO    : Bus 16	: Pd=3.5, Qd=1.8 -> Pd=6.94, Qd=1.80
% INFO    : Bus 17	: Pd=9.0, Qd=5.8 -> Pd=17.84, Qd=5.80
% INFO    : Bus 18	: Pd=3.2, Qd=0.9 -> Pd=6.34, Qd=0.90
% INFO    : Bus 19	: Pd=9.5, Qd=3.4 -> Pd=18.83, Qd=3.40
% INFO    : Bus 20	: Pd=2.2, Qd=0.7 -> Pd=4.36, Qd=0.70
% INFO    : Bus 21	: Pd=17.5, Qd=11.2 -> Pd=34.69, Qd=11.20
% INFO    : Bus 22	: Pd=0.0, Qd=0.0 -> Pd=0.00, Qd=0.00
% INFO    : Bus 23	: Pd=3.2, Qd=1.6 -> Pd=6.34, Qd=1.60
% INFO    : Bus 24	: Pd=8.7, Qd=6.7 -> Pd=17.25, Qd=6.70
% INFO    : Bus 25	: Pd=0.0, Qd=0.0 -> Pd=0.00, Qd=0.00
% INFO    : Bus 26	: Pd=3.5, Qd=2.3 -> Pd=6.94, Qd=2.30
% INFO    : Bus 27	: Pd=0.0, Qd=0.0 -> Pd=0.00, Qd=0.00
% INFO    : Bus 28	: Pd=0.0, Qd=0.0 -> Pd=0.00, Qd=0.00
% INFO    : Bus 29	: Pd=2.4, Qd=0.9 -> Pd=4.76, Qd=0.90
% INFO    : Bus 30	: Pd=10.6, Qd=1.9 -> Pd=21.01, Qd=1.90
% INFO    : 
% INFO    : === Generator Setpoint Replacement Notes ===
% INFO    : Gen at bus 1	: Pg=176.173, Qg=-15.56 -> Pg=51.0, Qg=-100.0
% INFO    : Gen at bus 2	: Pg=48.863, Qg=30.287 -> Pg=132.0, Qg=181.0
% INFO    : Gen at bus 5	: Pg=21.525, Qg=30.405 -> Pg=267.0, Qg=-17.0
% INFO    : Gen at bus 8	: Pg=22.253, Qg=37.836 -> Pg=98.0, Qg=54.0
% INFO    : Gen at bus 11	: Pg=12.268, Qg=11.841 -> Pg=15.0, Qg=11.0
% INFO    : Gen at bus 13	: Pg=12.0, Qg=21.45 -> Pg=15.0, Qg=14.0
% INFO    : 
% INFO    : === Generator Reactive Capacity Atleast Setpoint Value Notes ===
% INFO    : Gen at bus 1	: Qg -100.0, Qmin -20.0, Qmax 250.0 -> Qmin -120.0, Qmax 250.0
% INFO    : Gen at bus 2	: Qg 181.0, Qmin -20.0, Qmax 100.0 -> Qmin -217.2, Qmax 217.2
% INFO    : Gen at bus 5	: Qg -17.0, Qmin -15.0, Qmax 80.0 -> Qmin -20.4, Qmax 80.0
% INFO    : Gen at bus 8	: Qg 54.0, Qmin -15.0, Qmax 60.0 -> Qmin -64.8, Qmax 60.0
% INFO    : Gen at bus 11	: Qg 11.0, Qmin -10.0, Qmax 50.0 -> Qmin -13.2, Qmax 50.0
% INFO    : 
% INFO    : === Generator Classification Notes ===
% INFO    : PEL    2   -    19.55
% INFO    : COW    1   -     8.82
% INFO    : NG     3   -    71.63
% INFO    : 
% INFO    : === Generator Active Capacity Stat Model Notes ===
% INFO    : Gen at bus 1 - COW	: Pg=51.0, Pmax=200.0 -> Pmax=70   samples: 8
% INFO    : Gen at bus 2 - NG	: Pg=132.0, Pmax=80.0 -> Pmax=203   samples: 4
% INFO    : Gen at bus 5 - NG	: Pg=267.0, Pmax=50.0 -> Pmax=393   samples: 19
% INFO    : Gen at bus 8 - PEL	: Pg=98.0, Pmax=35.0 -> Pmax=107   samples: 5
% INFO    : Gen at bus 11 - PEL	: Pg=15.0, Pmax=30.0 -> Pmax=57   samples: 2
% INFO    : Gen at bus 13 - NG	: Pg=15.0, Pmax=40.0 -> Pmax=41   samples: 1
% INFO    : 
% INFO    : === Generator Active Capacity LB Model Notes ===
% INFO    : Gen at bus 1	: Pmin=50.0 -> Pmin=25.0 
% INFO    : Gen at bus 2	: Pmin=20.0 -> Pmin=10.0 
% INFO    : Gen at bus 5	: Pmin=15.0 -> Pmin=7.5 
% INFO    : Gen at bus 8	: Pmin=10.0 -> Pmin=5.0 
% INFO    : Gen at bus 11	: Pmin=10.0 -> Pmin=5.0 
% INFO    : Gen at bus 13	: Pmin=12.0 -> Pmin=6.0 
% INFO    : 
% INFO    : === Generator Reactive Capacity Atleast Max 50 Percent Active Model Notes ===
% INFO    : Gen at bus 5 - NG	: Pmax 393.0, Qmin -20.4, Qmax 80.0 -> Qmin -197.0, Qmax 197.0
% INFO    : Gen at bus 11 - PEL	: Pmax 57.0, Qmin -13.2, Qmax 50.0 -> Qmin -29.0, Qmax 50.0
% INFO    : Gen at bus 13 - NG	: Pmax 41.0, Qmin -15.0, Qmax 60.0 -> Qmin -21.0, Qmax 60.0
% INFO    : 
% INFO    : === Generator Active Cost Stat Model Notes ===
% INFO    : Updated Generator Cost: COW - 0.0 2.0 0.00375 -> 0 0.869848950622 0
% INFO    : Updated Generator Cost: NG - 0.0 1.75 0.0175 -> 0 1.32792224672 0
% INFO    : Updated Generator Cost: NG - 0.0 1.0 0.0625 -> 0 1.38708087693 0
% INFO    : Updated Generator Cost: PEL - 0.0 3.25 0.00834 -> 0 7.25320817817 0
% INFO    : Updated Generator Cost: PEL - 0.0 3.0 0.025 -> 0 7.39493605946 0
% INFO    : Updated Generator Cost: NG - 0.0 3.0 0.025 -> 0 0.981424667069 0
% INFO    : 
% INFO    : === Voltage Setpoint Replacement Notes ===
% INFO    : Bus 1	: V=1.05, theta=-0.0 -> V=1.05, theta=0.0
% INFO    : Bus 2	: V=1.03852, theta=-3.69896 -> V=1.1, theta=-0.36306
% INFO    : Bus 3	: V=1.02752, theta=-5.74184 -> V=1.04056, theta=-4.05706
% INFO    : Bus 4	: V=1.02228, theta=-6.90597 -> V=1.03828, theta=-4.81198
% INFO    : Bus 5	: V=1.01205, theta=-10.49663 -> V=1.05, theta=0.57692
% INFO    : Bus 6	: V=1.01893, theta=-8.03889 -> V=1.03825, theta=-5.12364
% INFO    : Bus 7	: V=1.00791, theta=-9.56342 -> V=1.02791, theta=-3.84478
% INFO    : Bus 8	: V=1.02094, theta=-8.32762 -> V=1.05, theta=-4.97717
% INFO    : Bus 9	: V=1.02683, theta=-10.17984 -> V=1.02699, theta=-10.63387
% INFO    : Bus 10	: V=1.01983, theta=-12.04949 -> V=1.01388, theta=-14.47388
% INFO    : Bus 11	: V=1.05, theta=-8.82366 -> V=1.05, theta=-9.06777
% INFO    : Bus 12	: V=1.03249, theta=-11.35278 -> V=1.0169, theta=-13.67737
% INFO    : Bus 13	: V=1.06068, theta=-10.47381 -> V=1.03025, theta=-12.53851
% INFO    : Bus 14	: V=1.01983, theta=-12.33186 -> V=0.9963, theta=-15.64941
% INFO    : Bus 15	: V=1.01725, theta=-12.52883 -> V=0.99349, theta=-15.93597
% INFO    : Bus 16	: V=1.01978, theta=-11.93358 -> V=1.00497, theta=-14.71469
% INFO    : Bus 17	: V=1.01436, theta=-12.23291 -> V=1.00365, theta=-15.06584
% INFO    : Bus 18	: V=1.00575, theta=-13.08596 -> V=0.98027, theta=-17.0566
% INFO    : Bus 19	: V=1.00214, theta=-13.21715 -> V=0.97784, theta=-17.27407
% INFO    : Bus 20	: V=1.00577, theta=-12.98437 -> V=0.98551, theta=-16.69527
% INFO    : Bus 21	: V=1.01291, theta=-12.66616 -> V=1.00054, theta=-15.74428
% INFO    : Bus 22	: V=1.01527, theta=-12.70293 -> V=1.00289, theta=-15.75458
% INFO    : Bus 23	: V=1.01744, theta=-13.27418 -> V=0.99276, theta=-16.98468
% INFO    : Bus 24	: V=1.02634, theta=-13.90091 -> V=1.00495, theta=-17.50539
% INFO    : Bus 25	: V=1.01185, theta=-13.19644 -> V=0.99881, theta=-16.09433
% INFO    : Bus 26	: V=0.99407, theta=-13.62075 -> V=0.97141, theta=-17.30623
% INFO    : Bus 27	: V=1.01139, theta=-12.50249 -> V=1.00798, theta=-14.54398
% INFO    : Bus 28	: V=1.01678, theta=-8.55577 -> V=1.03226, theta=-5.99139
% INFO    : Bus 29	: V=0.9913, theta=-13.76204 -> V=0.97177, theta=-17.28118
% INFO    : Bus 30	: V=0.97967, theta=-14.66682 -> V=0.95, theta=-19.24521
% INFO    : 
% INFO    : === Generator Setpoint Replacement Notes ===
% INFO    : Gen at bus 1	: Pg=51.0, Qg=-100.0 -> Pg=25.0, Qg=-91.679
% INFO    : Gen at bus 1	: Vg=1.05 -> Vg=1.05
% INFO    : Gen at bus 2	: Pg=132.0, Qg=181.0 -> Pg=176.363, Qg=168.737
% INFO    : Gen at bus 2	: Vg=1.03852 -> Vg=1.1
% INFO    : Gen at bus 5	: Pg=267.0, Qg=-17.0 -> Pg=259.612, Qg=-14.761
% INFO    : Gen at bus 5	: Vg=1.01205 -> Vg=1.05
% INFO    : Gen at bus 8	: Pg=98.0, Qg=54.0 -> Pg=84.791, Qg=59.747
% INFO    : Gen at bus 8	: Vg=1.02094 -> Vg=1.05
% INFO    : Gen at bus 11	: Pg=15.0, Qg=11.0 -> Pg=14.169, Qg=11.811
% INFO    : Gen at bus 11	: Vg=1.05 -> Vg=1.05
% INFO    : Gen at bus 13	: Pg=15.0, Qg=14.0 -> Pg=14.873, Qg=9.976
% INFO    : Gen at bus 13	: Vg=1.06068 -> Vg=1.03025
% INFO    : 
% INFO    : === Writing Matpower Case File Notes ===
