%%%%%%%%%%%%%%%%%%%%%%%%%%%%%%%%%%%%%%%%%%%%%%%%%%%%%%%%%%%%%%%%%%%%%%%%%%%
%%%%                                                                  %%%%%
%%%%    IEEE PES Power Grid Library - Optimal Power Flow - v23.07     %%%%%
%%%%          (https://github.com/power-grid-lib/pglib-opf)           %%%%%
%%%%             Benchmark Group - Active Power Increase              %%%%%
%%%%                         23 - July - 2023                         %%%%%
%%%%                                                                  %%%%%
%%%%%%%%%%%%%%%%%%%%%%%%%%%%%%%%%%%%%%%%%%%%%%%%%%%%%%%%%%%%%%%%%%%%%%%%%%%
function mpc = pglib_opf_case240_pserc__api
mpc.version = '2';
mpc.baseMVA = 100.0;

%% bus data
%	bus_i	type	Pd	Qd	Gs	Bs	area	Vm	Va	baseKV	zone	Vmax	Vmin
mpc.bus = [
	1001	 1	 0.0	 0.0	 0.0	 0.0	 10	    1.00000	    0.00000	 500.0	 1	    1.10000	    0.90000;
	1002	 1	 226.84	 -37.47	 0.0	 0.0	 10	    1.00000	    0.00000	 345.0	 1	    1.10000	    0.90000;
	1003	 1	 2821.71	 366.86	 0.0	 0.0	 10	    1.00000	    0.00000	 230.0	 1	    1.10000	    0.90000;
	1004	 1	 1360.13	 5.52	 0.0	 0.0	 10	    1.00000	    0.00000	 345.0	 1	    1.10000	    0.90000;
	1032	 2	 0.0	 0.0	 0.0	 0.0	 10	    1.00000	    0.00000	 20.0	 1	    1.10000	    0.90000;
	1034	 2	 0.0	 0.0	 0.0	 0.0	 10	    1.00000	    0.00000	 20.0	 1	    1.10000	    0.90000;
	1101	 1	 4527.37	 -137.04	 0.0	 0.0	 10	    1.00000	    0.00000	 500.0	 1	    1.10000	    0.90000;
	1102	 1	 231.21	 23.00	 0.0	 0.0	 10	    1.00000	    0.00000	 345.0	 1	    1.10000	    0.90000;
	1131	 2	 0.0	 0.0	 0.0	 0.0	 10	    1.00000	    0.00000	 20.0	 1	    1.10000	    0.90000;
	1201	 1	 166.99	 -2.01	 0.0	 0.0	 10	    1.00000	    0.00000	 500.0	 1	    1.10000	    0.90000;
	1202	 1	 1147.40	 287.13	 0.0	 0.0	 10	    1.00000	    0.00000	 500.0	 1	    1.10000	    0.90000;
	1232	 2	 0.0	 0.0	 0.0	 0.0	 10	    1.00000	    0.00000	 20.0	 1	    1.10000	    0.90000;
	1301	 1	 3544.33	 352.83	 0.0	 0.0	 10	    1.00000	    0.00000	 500.0	 1	    1.10000	    0.90000;
	1302	 1	 23.00	 2.30	 0.0	 0.0	 10	    1.00000	    0.00000	 500.0	 1	    1.10000	    0.90000;
	1303	 1	 8170.50	 813.35	 0.0	 0.0	 10	    1.00000	    0.00000	 345.0	 1	    1.10000	    0.90000;
	1331	 2	 0.0	 0.0	 0.0	 0.0	 10	    1.00000	    0.00000	 20.0	 1	    1.10000	    0.90000;
	1333	 2	 0.0	 0.0	 0.0	 0.0	 10	    1.00000	    0.00000	 20.0	 1	    1.10000	    0.90000;
	1401	 1	 8564.15	 1524.59	 0.0	 0.0	 10	    1.00000	    0.00000	 500.0	 1	    1.10000	    0.90000;
	1402	 1	 5366.63	 -600.16	 0.0	 0.0	 10	    1.00000	    0.00000	 500.0	 1	    1.10000	    0.90000;
	1403	 1	 0.0	 0.0	 0.0	 0.0	 10	    1.00000	    0.00000	 230.0	 1	    1.10000	    0.90000;
	1431	 2	 0.0	 0.0	 0.0	 0.0	 10	    1.00000	    0.00000	 20.0	 1	    1.10000	    0.90000;
	2000	 1	 2892.29	 287.92	 0.0	 0.0	 20	    1.00000	    0.00000	 230.0	 1	    1.10000	    0.90000;
	2030	 2	 0.0	 0.0	 0.0	 0.0	 20	    1.00000	    0.00000	 20.0	 1	    1.10000	    0.90000;
	2100	 1	 368.42	 54.83	 0.0	 0.0	 21	    1.00000	    0.00000	 230.0	 1	    1.10000	    0.90000;
	2130	 2	 0.0	 0.0	 0.0	 0.0	 21	    1.00000	    0.00000	 20.0	 1	    1.10000	    0.90000;
	2201	 1	 0.0	 0.0	 0.0	 0.0	 22	    1.00000	    0.00000	 500.0	 1	    1.10000	    0.90000;
	2202	 1	 2025.81	 268.56	 0.0	 0.0	 22	    1.00000	    0.00000	 230.0	 1	    1.10000	    0.90000;
	2203	 1	 2238.88	 278.27	 0.0	 0.0	 22	    1.00000	    0.00000	 230.0	 1	    1.10000	    0.90000;
	2233	 2	 0.0	 0.0	 0.0	 0.0	 22	    1.00000	    0.00000	 20.0	 1	    1.10000	    0.90000;
	2301	 1	 0.0	 0.0	 0.0	 0.0	 22	    1.00000	    0.00000	 500.0	 1	    1.10000	    0.90000;
	2302	 1	 0.0	 0.0	 0.0	 0.0	 22	    1.00000	    0.00000	 230.0	 1	    1.10000	    0.90000;
	2332	 2	 0.0	 0.0	 0.0	 0.0	 22	    1.00000	    0.00000	 20.0	 1	    1.10000	    0.90000;
	2400	 1	 1105.05	 76.66	 0.0	 0.0	 24	    1.00000	    0.00000	 500.0	 1	    1.10000	    0.90000;
	2401	 1	 1156.25	 105.21	 0.0	 0.0	 24	    1.00000	    0.00000	 500.0	 1	    1.10000	    0.90000;
	2402	 1	 1415.25	 81.98	 0.0	 0.0	 24	    1.00000	    0.00000	 500.0	 1	    1.10000	    0.90000;
	2403	 1	 1375.92	 38.54	 0.0	 0.0	 24	    1.00000	    0.00000	 500.0	 1	    1.10000	    0.90000;
	2404	 1	 0.0	 0.0	 0.0	 0.0	 24	    1.00000	    0.00000	 500.0	 1	    1.10000	    0.90000;
	2405	 1	 1080.66	 22.90	 0.0	 0.0	 24	    1.00000	    0.00000	 230.0	 1	    1.10000	    0.90000;
	2406	 1	 737.40	 -40.75	 0.0	 0.0	 24	    1.00000	    0.00000	 230.0	 1	    1.10000	    0.90000;
	2407	 1	 1732.77	 -36.53	 0.0	 0.0	 24	    1.00000	    0.00000	 230.0	 1	    1.10000	    0.90000;
	2408	 1	 1743.28	 -72.62	 0.0	 0.0	 24	    1.00000	    0.00000	 230.0	 1	    1.10000	    0.90000;
	2409	 1	 1601.78	 -86.70	 0.0	 0.0	 24	    1.00000	    0.00000	 230.0	 1	    1.10000	    0.90000;
	2410	 1	 2066.22	 58.18	 0.0	 0.0	 24	    1.00000	    0.00000	 230.0	 1	    1.10000	    0.90000;
	2411	 1	 1425.22	 75.95	 0.0	 0.0	 24	    1.00000	    0.00000	 230.0	 1	    1.10000	    0.90000;
	2438	 2	 0.0	 0.0	 0.0	 0.0	 24	    1.00000	    0.00000	 20.0	 1	    1.10000	    0.90000;
	2501	 1	 0.0	 0.0	 0.0	 0.0	 25	    1.00000	    0.00000	 500.0	 1	    1.10000	    0.90000;
	2502	 1	 2369.15	 -91.91	 0.0	 0.0	 25	    1.00000	    0.00000	 230.0	 1	    1.10000	    0.90000;
	2503	 1	 2418.90	 201.99	 0.0	 0.0	 25	    1.00000	    0.00000	 230.0	 1	    1.10000	    0.90000;
	2533	 2	 0.0	 0.0	 0.0	 0.0	 25	    1.00000	    0.00000	 20.0	 1	    1.10000	    0.90000;
	2600	 1	 -1863.90	 0.00	 0.0	 0.0	 90	    1.00000	    0.00000	 500.0	 1	    1.10000	    0.90000;
	2601	 1	 0.0	 0.0	 0.0	 0.0	 26	    1.00000	    0.00000	 500.0	 1	    1.10000	    0.90000;
	2602	 1	 130.09	 12.96	 0.0	 0.0	 26	    1.00000	    0.00000	 500.0	 1	    1.10000	    0.90000;
	2603	 1	 0.0	 0.0	 0.0	 0.0	 26	    1.00000	    0.00000	 500.0	 1	    1.10000	    0.90000;
	2604	 1	 2050.78	 0.00	 0.0	 0.0	 90	    1.00000	    0.00000	 345.0	 1	    1.10000	    0.90000;
	2605	 1	 0.0	 0.0	 0.0	 0.0	 26	    1.00000	    0.00000	 287.0	 1	    1.10000	    0.90000;
	2606	 1	 0.0	 0.0	 0.0	 0.0	 26	    1.00000	    0.00000	 287.0	 1	    1.10000	    0.90000;
	2607	 1	 0.0	 0.0	 0.0	 0.0	 26	    1.00000	    0.00000	 287.0	 1	    1.10000	    0.90000;
	2608	 1	 130.09	 12.96	 0.0	 0.0	 26	    1.00000	    0.00000	 230.0	 1	    1.10000	    0.90000;
	2609	 1	 175.63	 26.80	 0.0	 0.0	 26	    1.00000	    0.00000	 230.0	 1	    1.10000	    0.90000;
	2610	 1	 130.09	 12.96	 0.0	 0.0	 26	    1.00000	    0.00000	 230.0	 1	    1.10000	    0.90000;
	2611	 1	 130.09	 12.96	 0.0	 0.0	 26	    1.00000	    0.00000	 230.0	 1	    1.10000	    0.90000;
	2612	 1	 157.41	 24.82	 0.0	 0.0	 26	    1.00000	    0.00000	 230.0	 1	    1.10000	    0.90000;
	2613	 1	 416.30	 64.53	 0.0	 0.0	 26	    1.00000	    0.00000	 230.0	 1	    1.10000	    0.90000;
	2614	 1	 179.53	 27.80	 0.0	 0.0	 26	    1.00000	    0.00000	 230.0	 1	    1.10000	    0.90000;
	2615	 1	 1050.91	 131.15	 0.0	 0.0	 26	    1.00000	    0.00000	 230.0	 1	    1.10000	    0.90000;
	2616	 1	 152.21	 23.83	 0.0	 0.0	 26	    1.00000	    0.00000	 230.0	 1	    1.10000	    0.90000;
	2617	 1	 157.41	 24.82	 0.0	 0.0	 26	    1.00000	    0.00000	 230.0	 1	    1.10000	    0.90000;
	2618	 1	 881.30	 -6.16	 0.0	 0.0	 26	    1.00000	    0.00000	 230.0	 1	    1.10000	    0.90000;
	2619	 1	 -2773.83	 0.00	 0.0	 0.0	 90	    1.00000	    0.00000	 230.0	 1	    1.10000	    0.90000;
	2620	 1	 266.95	 17.47	 0.0	 0.0	 26	    1.00000	    0.00000	 230.0	 1	    1.10000	    0.90000;
	2621	 1	 235.49	 -62.74	 0.0	 0.0	 26	    1.00000	    0.00000	 138.0	 1	    1.10000	    0.90000;
	2630	 2	 0.0	 0.0	 0.0	 0.0	 26	    1.00000	    0.00000	 20.0	 1	    1.10000	    0.90000;
	2631	 2	 0.0	 0.0	 0.0	 0.0	 26	    1.00000	    0.00000	 20.0	 1	    1.10000	    0.90000;
	2634	 2	 0.0	 0.0	 0.0	 0.0	 90	    1.00000	    0.00000	 20.0	 1	    1.10000	    0.90000;
	2637	 2	 0.0	 0.0	 0.0	 0.0	 26	    1.00000	    0.00000	 20.0	 1	    1.10000	    0.90000;
	2638	 2	 0.0	 0.0	 0.0	 0.0	 26	    1.00000	    0.00000	 20.0	 1	    1.10000	    0.90000;
	2901	 1	 0.0	 0.0	 0.0	 0.0	 24	    1.00000	    0.00000	 500.0	 1	    1.10000	    0.90000;
	2902	 1	 0.0	 0.0	 0.0	 0.0	 24	    1.00000	    0.00000	 500.0	 1	    1.10000	    0.90000;
	3101	 1	 447.25	 52.83	 0.0	 0.0	 31	    1.00000	    0.00000	 230.0	 1	    1.10000	    0.90000;
	3102	 1	 208.96	 24.93	 0.0	 0.0	 31	    1.00000	    0.00000	 230.0	 1	    1.10000	    0.90000;
	3103	 1	 549.86	 59.78	 0.0	 0.0	 32	    1.00000	    0.00000	 230.0	 1	    1.10000	    0.90000;
	3104	 1	 406.19	 40.13	 0.0	 0.0	 31	    1.00000	    0.00000	 115.0	 1	    1.10000	    0.90000;
	3105	 1	 313.58	 49.09	 0.0	 0.0	 31	    1.00000	    0.00000	 115.0	 1	    1.10000	    0.90000;
	3133	 2	 0.0	 0.0	 0.0	 0.0	 32	    1.00000	    0.00000	 20.0	 1	    1.10000	    0.90000;
	3135	 2	 0.0	 0.0	 0.0	 0.0	 31	    1.00000	    0.00000	 20.0	 1	    1.10000	    0.90000;
	3201	 1	 606.03	 97.85	 0.0	 0.0	 32	    1.00000	    0.00000	 230.0	 1	    1.10000	    0.90000;
	3202	 1	 768.13	 83.47	 0.0	 0.0	 32	    1.00000	    0.00000	 230.0	 1	    1.10000	    0.90000;
	3203	 1	 861.07	 158.48	 0.0	 0.0	 32	    1.00000	    0.00000	 230.0	 1	    1.10000	    0.90000;
	3204	 1	 876.38	 95.31	 0.0	 0.0	 32	    1.00000	    0.00000	 230.0	 1	    1.10000	    0.90000;
	3205	 1	 715.56	 77.78	 0.0	 0.0	 32	    1.00000	    0.00000	 230.0	 1	    1.10000	    0.90000;
	3234	 2	 0.0	 0.0	 0.0	 0.0	 32	    1.00000	    0.00000	 20.0	 1	    1.10000	    0.90000;
	3301	 1	 0.0	 0.0	 0.0	 0.0	 32	    1.00000	    0.00000	 500.0	 1	    1.10000	    0.90000;
	3302	 1	 452.51	 85.79	 0.0	 0.0	 32	    1.00000	    0.00000	 230.0	 1	    1.10000	    0.90000;
	3303	 1	 819.54	 150.72	 0.0	 0.0	 32	    1.00000	    0.00000	 230.0	 1	    1.10000	    0.90000;
	3304	 1	 699.07	 122.62	 0.0	 0.0	 32	    1.00000	    0.00000	 230.0	 1	    1.10000	    0.90000;
	3305	 1	 563.89	 61.22	 0.0	 0.0	 32	    1.00000	    0.00000	 230.0	 1	    1.10000	    0.90000;
	3333	 2	 0.0	 0.0	 0.0	 0.0	 32	    1.00000	    0.00000	 20.0	 1	    1.10000	    0.90000;
	3401	 1	 730.82	 135.91	 0.0	 0.0	 34	    1.00000	    0.00000	 230.0	 1	    1.10000	    0.90000;
	3402	 1	 0.0	 0.0	 0.0	 0.0	 34	    1.00000	    0.00000	 230.0	 1	    1.10000	    0.90000;
	3403	 1	 676.12	 73.58	 0.0	 0.0	 34	    1.00000	    0.00000	 230.0	 1	    1.10000	    0.90000;
	3404	 1	 574.56	 62.08	 0.0	 0.0	 34	    1.00000	    0.00000	 230.0	 1	    1.10000	    0.90000;
	3405	 1	 588.23	 63.72	 0.0	 0.0	 34	    1.00000	    0.00000	 230.0	 1	    1.10000	    0.90000;
	3432	 2	 0.0	 0.0	 0.0	 0.0	 34	    1.00000	    0.00000	 20.0	 1	    1.10000	    0.90000;
	3433	 2	 0.0	 0.0	 0.0	 0.0	 34	    1.00000	    0.00000	 20.0	 1	    1.10000	    0.90000;
	3501	 1	 819.02	 89.02	 0.0	 0.0	 35	    1.00000	    0.00000	 230.0	 1	    1.10000	    0.90000;
	3531	 2	 0.0	 0.0	 0.0	 0.0	 35	    1.00000	    0.00000	 20.0	 1	    1.10000	    0.90000;
	3601	 1	 137.40	 14.84	 0.0	 0.0	 36	    1.00000	    0.00000	 115.0	 1	    1.10000	    0.90000;
	3631	 2	 0.0	 0.0	 0.0	 0.0	 36	    1.00000	    0.00000	 20.0	 1	    1.10000	    0.90000;
	3701	 1	 415.46	 15.85	 0.0	 0.0	 37	    1.00000	    0.00000	 115.0	 1	    1.10000	    0.90000;
	3731	 2	 0.0	 0.0	 0.0	 0.0	 37	    1.00000	    0.00000	 20.0	 1	    1.10000	    0.90000;
	3801	 1	 250.58	 47.41	 0.0	 0.0	 38	    1.00000	    0.00000	 500.0	 1	    1.10000	    0.90000;
	3802	 1	 0.0	 0.0	 0.0	 0.0	 38	    1.00000	    0.00000	 500.0	 1	    1.10000	    0.90000;
	3803	 1	 0.0	 0.0	 0.0	 0.0	 38	    1.00000	    0.00000	 500.0	 1	    1.10000	    0.90000;
	3804	 1	 293.06	 55.32	 0.0	 0.0	 38	    1.00000	    0.00000	 230.0	 1	    1.10000	    0.90000;
	3805	 1	 654.40	 163.11	 0.0	 0.0	 38	    1.00000	    0.00000	 230.0	 1	    1.10000	    0.90000;
	3806	 1	 379.47	 41.37	 0.0	 0.0	 38	    1.00000	    0.00000	 230.0	 1	    1.10000	    0.90000;
	3831	 2	 0.0	 0.0	 0.0	 0.0	 38	    1.00000	    0.00000	 20.0	 1	    1.10000	    0.90000;
	3835	 2	 0.0	 0.0	 0.0	 0.0	 38	    1.00000	    0.00000	 20.0	 1	    1.10000	    0.90000;
	3836	 2	 0.0	 0.0	 0.0	 0.0	 38	    1.00000	    0.00000	 20.0	 1	    1.10000	    0.90000;
	3891	 1	 0.0	 0.0	 0.0	 0.0	 38	    1.00000	    0.00000	 500.0	 1	    1.10000	    0.90000;
	3892	 1	 0.0	 0.0	 0.0	 0.0	 38	    1.00000	    0.00000	 500.0	 1	    1.10000	    0.90000;
	3893	 1	 0.0	 0.0	 0.0	 0.0	 38	    1.00000	    0.00000	 500.0	 1	    1.10000	    0.90000;
	3894	 1	 0.0	 0.0	 0.0	 0.0	 38	    1.00000	    0.00000	 500.0	 1	    1.10000	    0.90000;
	3895	 1	 0.0	 0.0	 0.0	 0.0	 38	    1.00000	    0.00000	 500.0	 1	    1.10000	    0.90000;
	3896	 1	 0.0	 0.0	 0.0	 0.0	 38	    1.00000	    0.00000	 500.0	 1	    1.10000	    0.90000;
	3897	 1	 0.0	 0.0	 0.0	 0.0	 38	    1.00000	    0.00000	 500.0	 1	    1.10000	    0.90000;
	3901	 1	 0.0	 0.0	 0.0	 0.0	 39	    1.00000	    0.00000	 500.0	 1	    1.10000	    0.90000;
	3902	 1	 200.48	 38.25	 0.0	 0.0	 39	    1.00000	    0.00000	 500.0	 1	    1.10000	    0.90000;
	3903	 1	 279.44	 30.27	 0.0	 0.0	 39	    1.00000	    0.00000	 500.0	 1	    1.10000	    0.90000;
	3904	 1	 0.0	 0.0	 0.0	 0.0	 39	    1.00000	    0.00000	 500.0	 1	    1.10000	    0.90000;
	3905	 1	 0.0	 0.0	 0.0	 0.0	 39	    1.00000	    0.00000	 500.0	 1	    1.10000	    0.90000;
	3906	 1	 0.0	 0.0	 0.0	 0.0	 39	    1.00000	    0.00000	 500.0	 1	    1.10000	    0.90000;
	3907	 1	 604.56	 63.07	 0.0	 0.0	 39	    1.00000	    0.00000	 230.0	 1	    1.10000	    0.90000;
	3908	 1	 262.44	 24.72	 0.0	 0.0	 39	    1.00000	    0.00000	 230.0	 1	    1.10000	    0.90000;
	3909	 1	 224.02	 39.78	 0.0	 0.0	 39	    1.00000	    0.00000	 230.0	 1	    1.10000	    0.90000;
	3910	 1	 316.91	 34.44	 0.0	 0.0	 39	    1.00000	    0.00000	 230.0	 1	    1.10000	    0.90000;
	3911	 1	 305.50	 47.11	 0.0	 0.0	 39	    1.00000	    0.00000	 230.0	 1	    1.10000	    0.90000;
	3912	 1	 174.50	 -0.63	 0.0	 0.0	 39	    1.00000	    0.00000	 230.0	 1	    1.10000	    0.90000;
	3913	 1	 431.84	 43.44	 0.0	 0.0	 39	    1.00000	    0.00000	 230.0	 1	    1.10000	    0.90000;
	3914	 1	 298.45	 52.55	 0.0	 0.0	 39	    1.00000	    0.00000	 230.0	 1	    1.10000	    0.90000;
	3915	 1	 333.44	 53.40	 0.0	 0.0	 39	    1.00000	    0.00000	 230.0	 1	    1.10000	    0.90000;
	3916	 1	 155.00	 0.00	 0.0	 0.0	 39	    1.00000	    0.00000	 230.0	 1	    1.10000	    0.90000;
	3917	 1	 312.12	 43.99	 0.0	 0.0	 39	    1.00000	    0.00000	 230.0	 1	    1.10000	    0.90000;
	3918	 1	 418.38	 75.46	 0.0	 0.0	 39	    1.00000	    0.00000	 230.0	 1	    1.10000	    0.90000;
	3919	 1	 241.78	 24.09	 0.0	 0.0	 39	    1.00000	    0.00000	 230.0	 1	    1.10000	    0.90000;
	3920	 1	 226.05	 23.68	 0.0	 0.0	 39	    1.00000	    0.00000	 230.0	 1	    1.10000	    0.90000;
	3921	 1	 197.73	 34.82	 0.0	 0.0	 39	    1.00000	    0.00000	 230.0	 1	    1.10000	    0.90000;
	3922	 1	 332.11	 31.92	 0.0	 0.0	 39	    1.00000	    0.00000	 230.0	 1	    1.10000	    0.90000;
	3923	 1	 522.93	 67.02	 0.0	 0.0	 39	    1.00000	    0.00000	 230.0	 1	    1.10000	    0.90000;
	3924	 1	 435.69	 47.16	 0.0	 0.0	 39	    1.00000	    0.00000	 230.0	 1	    1.10000	    0.90000;
	3925	 1	 0.0	 0.0	 0.0	 0.0	 39	    1.00000	    0.00000	 115.0	 1	    1.10000	    0.90000;
	3926	 1	 350.34	 16.67	 0.0	 0.0	 39	    1.00000	    0.00000	 115.0	 1	    1.10000	    0.90000;
	3931	 2	 0.0	 0.0	 0.0	 0.0	 39	    1.00000	    0.00000	 20.0	 1	    1.10000	    0.90000;
	3932	 2	 0.0	 0.0	 0.0	 0.0	 39	    1.00000	    0.00000	 20.0	 1	    1.10000	    0.90000;
	3933	 3	 0.0	 0.0	 0.0	 0.0	 39	    1.00000	    0.00000	 20.0	 1	    1.10000	    0.90000;
	4001	 1	 0.0	 0.0	 0.0	 0.0	 40	    1.00000	    0.00000	 500.0	 1	    1.10000	    0.90000;
	4002	 1	 221.04	 22.00	 0.0	 0.0	 40	    1.00000	    0.00000	 500.0	 1	    1.10000	    0.90000;
	4003	 1	 0.0	 0.0	 0.0	 0.0	 40	    1.00000	    0.00000	 500.0	 1	    1.10000	    0.90000;
	4004	 1	 354.40	 35.30	 0.0	 0.0	 40	    1.00000	    0.00000	 500.0	 1	    1.10000	    0.90000;
	4005	 1	 629.14	 157.42	 0.0	 0.0	 40	    1.00000	    0.00000	 500.0	 1	    1.10000	    0.90000;
	4006	 1	 0.0	 0.0	 0.0	 0.0	 40	    1.00000	    0.00000	 500.0	 1	    1.10000	    0.90000;
	4007	 1	 0.0	 0.0	 0.0	 0.0	 40	    1.00000	    0.00000	 500.0	 1	    1.10000	    0.90000;
	4008	 1	 373.65	 37.20	 0.0	 0.0	 40	    1.00000	    0.00000	 345.0	 1	    1.10000	    0.90000;
	4009	 1	 2894.33	 431.40	 0.0	 0.0	 40	    1.00000	    0.00000	 230.0	 1	    1.10000	    0.90000;
	4010	 1	 3133.61	 0.00	 0.0	 0.0	 90	    1.00000	    0.00000	 230.0	 1	    1.10000	    0.90000;
	4031	 2	 0.0	 0.0	 0.0	 0.0	 40	    1.00000	    0.00000	 20.0	 1	    1.10000	    0.90000;
	4035	 2	 0.0	 0.0	 0.0	 0.0	 40	    1.00000	    0.00000	 20.0	 1	    1.10000	    0.90000;
	4039	 2	 0.0	 0.0	 0.0	 0.0	 40	    1.00000	    0.00000	 20.0	 1	    1.10000	    0.90000;
	4090	 1	 0.0	 0.0	 0.0	 0.0	 40	    1.00000	    0.00000	 500.0	 1	    1.10000	    0.90000;
	4091	 1	 0.0	 0.0	 0.0	 0.0	 40	    1.00000	    0.00000	 500.0	 1	    1.10000	    0.90000;
	4092	 1	 0.0	 0.0	 0.0	 0.0	 40	    1.00000	    0.00000	 500.0	 1	    1.10000	    0.90000;
	4093	 1	 0.0	 0.0	 0.0	 0.0	 40	    1.00000	    0.00000	 500.0	 1	    1.10000	    0.90000;
	4094	 1	 0.0	 0.0	 0.0	 0.0	 40	    1.00000	    0.00000	 500.0	 1	    1.10000	    0.90000;
	4095	 1	 0.0	 0.0	 0.0	 0.0	 40	    1.00000	    0.00000	 500.0	 1	    1.10000	    0.90000;
	4096	 1	 0.0	 0.0	 0.0	 0.0	 40	    1.00000	    0.00000	 500.0	 1	    1.10000	    0.90000;
	4097	 1	 0.0	 0.0	 0.0	 0.0	 40	    1.00000	    0.00000	 500.0	 1	    1.10000	    0.90000;
	4101	 1	 1303.88	 129.78	 0.0	 0.0	 40	    1.00000	    0.00000	 500.0	 1	    1.10000	    0.90000;
	4102	 1	 629.84	 68.66	 0.0	 0.0	 40	    1.00000	    0.00000	 500.0	 1	    1.10000	    0.90000;
	4103	 1	 15.24	 1.51	 0.0	 0.0	 40	    1.00000	    0.00000	 500.0	 1	    1.10000	    0.90000;
	4104	 1	 3312.39	 329.74	 0.0	 0.0	 40	    1.00000	    0.00000	 230.0	 1	    1.10000	    0.90000;
	4131	 2	 0.0	 0.0	 0.0	 0.0	 40	    1.00000	    0.00000	 20.0	 1	    1.10000	    0.90000;
	4132	 2	 0.0	 0.0	 0.0	 0.0	 40	    1.00000	    0.00000	 20.0	 1	    1.10000	    0.90000;
	4201	 1	 7551.37	 461.01	 0.0	 0.0	 40	    1.00000	    0.00000	 500.0	 1	    1.10000	    0.90000;
	4202	 1	 5973.10	 594.63	 0.0	 0.0	 40	    1.00000	    0.00000	 500.0	 1	    1.10000	    0.90000;
	4203	 1	 5739.05	 571.33	 0.0	 0.0	 40	    1.00000	    0.00000	 500.0	 1	    1.10000	    0.90000;
	4204	 1	 1329.42	 132.34	 0.0	 0.0	 40	    1.00000	    0.00000	 500.0	 1	    1.10000	    0.90000;
	4231	 2	 0.0	 0.0	 0.0	 0.0	 40	    1.00000	    0.00000	 20.0	 1	    1.10000	    0.90000;
	4232	 2	 0.0	 0.0	 0.0	 0.0	 40	    1.00000	    0.00000	 20.0	 1	    1.10000	    0.90000;
	5001	 1	 9925.01	 1721.38	 0.0	 0.0	 50	    1.00000	    0.00000	 500.0	 1	    1.10000	    0.90000;
	5002	 1	 11798.79	 1174.36	 0.0	 0.0	 50	    1.00000	    0.00000	 500.0	 1	    1.10000	    0.90000;
	5003	 1	 806.18	 80.25	 0.0	 0.0	 50	    1.00000	    0.00000	 230.0	 1	    1.10000	    0.90000;
	5004	 1	 0.0	 0.0	 0.0	 0.0	 50	    1.00000	    0.00000	 230.0	 1	    1.10000	    0.90000;
	5031	 2	 0.0	 0.0	 0.0	 0.0	 50	    1.00000	    0.00000	 20.0	 1	    1.10000	    0.90000;
	5032	 2	 0.0	 0.0	 0.0	 0.0	 50	    1.00000	    0.00000	 20.0	 1	    1.10000	    0.90000;
	6101	 1	 0.0	 0.0	 0.0	 0.0	 61	    1.00000	    0.00000	 500.0	 1	    1.10000	    0.90000;
	6102	 1	 1053.14	 -345.28	 0.0	 0.0	 61	    1.00000	    0.00000	 345.0	 1	    1.10000	    0.90000;
	6103	 1	 513.53	 51.11	 0.0	 0.0	 61	    1.00000	    0.00000	 345.0	 1	    1.10000	    0.90000;
	6104	 1	 2221.07	 221.09	 0.0	 0.0	 61	    1.00000	    0.00000	 230.0	 1	    1.10000	    0.90000;
	6132	 2	 0.0	 0.0	 0.0	 0.0	 61	    1.00000	    0.00000	 20.0	 1	    1.10000	    0.90000;
	6201	 1	 269.71	 26.86	 0.0	 0.0	 60	    1.00000	    0.00000	 500.0	 1	    1.10000	    0.90000;
	6202	 1	 116.26	 13.53	 0.0	 0.0	 60	    1.00000	    0.00000	 500.0	 1	    1.10000	    0.90000;
	6203	 1	 1457.62	 145.09	 0.0	 0.0	 60	    1.00000	    0.00000	 230.0	 1	    1.10000	    0.90000;
	6204	 1	 1571.55	 156.46	 0.0	 0.0	 60	    1.00000	    0.00000	 230.0	 1	    1.10000	    0.90000;
	6205	 1	 641.15	 86.34	 0.0	 0.0	 60	    1.00000	    0.00000	 230.0	 1	    1.10000	    0.90000;
	6231	 2	 0.0	 0.0	 0.0	 0.0	 60	    1.00000	    0.00000	 20.0	 1	    1.10000	    0.90000;
	6235	 2	 0.0	 0.0	 0.0	 0.0	 60	    1.00000	    0.00000	 20.0	 1	    1.10000	    0.90000;
	6301	 1	 676.66	 67.36	 0.0	 0.0	 60	    1.00000	    0.00000	 345.0	 1	    1.10000	    0.90000;
	6302	 1	 775.52	 77.22	 0.0	 0.0	 60	    1.00000	    0.00000	 345.0	 1	    1.10000	    0.90000;
	6303	 1	 978.34	 97.40	 0.0	 0.0	 60	    1.00000	    0.00000	 230.0	 1	    1.10000	    0.90000;
	6304	 1	 0.0	 0.0	 0.0	 0.0	 60	    1.00000	    0.00000	 230.0	 1	    1.10000	    0.90000;
	6305	 1	 78.93	 19.75	 0.0	 0.0	 60	    1.00000	    0.00000	 230.0	 1	    1.10000	    0.90000;
	6333	 2	 0.0	 0.0	 0.0	 0.0	 60	    1.00000	    0.00000	 20.0	 1	    1.10000	    0.90000;
	6335	 2	 0.0	 0.0	 0.0	 0.0	 60	    1.00000	    0.00000	 20.0	 1	    1.10000	    0.90000;
	6401	 1	 2191.47	 218.15	 0.0	 0.0	 64	    1.00000	    0.00000	 345.0	 1	    1.10000	    0.90000;
	6402	 1	 357.10	 35.57	 0.0	 0.0	 64	    1.00000	    0.00000	 115.0	 1	    1.10000	    0.90000;
	6403	 1	 2.88	 0.27	 0.0	 0.0	 64	    1.00000	    0.00000	 345.0	 1	    1.10000	    0.90000;
	6404	 1	 37.98	 3.77	 0.0	 0.0	 64	    1.00000	    0.00000	 345.0	 1	    1.10000	    0.90000;
	6433	 2	 0.0	 0.0	 0.0	 0.0	 64	    1.00000	    0.00000	 20.0	 1	    1.10000	    0.90000;
	6501	 1	 256.24	 64.13	 0.0	 0.0	 60	    1.00000	    0.00000	 345.0	 1	    1.10000	    0.90000;
	6502	 1	 2038.42	 277.67	 0.0	 0.0	 60	    1.00000	    0.00000	 345.0	 1	    1.10000	    0.90000;
	6503	 1	 578.09	 144.60	 0.0	 0.0	 60	    1.00000	    0.00000	 345.0	 1	    1.10000	    0.90000;
	6504	 1	 389.14	 38.73	 0.0	 0.0	 60	    1.00000	    0.00000	 345.0	 1	    1.10000	    0.90000;
	6505	 1	 8.90	 2.23	 0.0	 0.0	 60	    1.00000	    0.00000	 345.0	 1	    1.10000	    0.90000;
	6506	 1	 0.0	 0.0	 0.0	 0.0	 60	    1.00000	    0.00000	 345.0	 1	    1.10000	    0.90000;
	6507	 1	 540.77	 -61.35	 0.0	 0.0	 60	    1.00000	    0.00000	 345.0	 1	    1.10000	    0.90000;
	6508	 1	 172.76	 43.21	 0.0	 0.0	 60	    1.00000	    0.00000	 345.0	 1	    1.10000	    0.90000;
	6509	 1	 11.26	 2.82	 0.0	 0.0	 60	    1.00000	    0.00000	 345.0	 1	    1.10000	    0.90000;
	6510	 1	 1946.02	 -103.88	 0.0	 0.0	 60	    1.00000	    0.00000	 230.0	 1	    1.10000	    0.90000;
	6533	 2	 0.0	 0.0	 0.0	 0.0	 60	    1.00000	    0.00000	 20.0	 1	    1.10000	    0.90000;
	7001	 1	 9767.59	 972.35	 0.0	 0.0	 60	    1.00000	    0.00000	 345.0	 1	    1.10000	    0.90000;
	7002	 1	 2554.83	 -138.07	 0.0	 0.0	 60	    1.00000	    0.00000	 345.0	 1	    1.10000	    0.90000;
	7031	 2	 0.0	 0.0	 0.0	 0.0	 60	    1.00000	    0.00000	 20.0	 1	    1.10000	    0.90000;
	7032	 2	 0.0	 0.0	 0.0	 0.0	 60	    1.00000	    0.00000	 20.0	 1	    1.10000	    0.90000;
	8001	 1	 0.0	 0.0	 0.0	 0.0	 80	    1.00000	    0.00000	 500.0	 1	    1.10000	    0.90000;
	8002	 1	 0.0	 0.0	 0.0	 0.0	 80	    1.00000	    0.00000	 500.0	 1	    1.10000	    0.90000;
	8003	 1	 855.26	 85.14	 0.0	 0.0	 80	    1.00000	    0.00000	 230.0	 1	    1.10000	    0.90000;
	8004	 1	 4963.64	 494.11	 0.0	 0.0	 80	    1.00000	    0.00000	 230.0	 1	    1.10000	    0.90000;
	8005	 1	 1731.35	 172.37	 0.0	 0.0	 80	    1.00000	    0.00000	 230.0	 1	    1.10000	    0.90000;
	8033	 2	 0.0	 0.0	 0.0	 0.0	 80	    1.00000	    0.00000	 20.0	 1	    1.10000	    0.90000;
	8034	 2	 0.0	 0.0	 0.0	 0.0	 80	    1.00000	    0.00000	 20.0	 1	    1.10000	    0.90000;
];

%% generator data
%	bus	Pg	Qg	Qmax	Qmin	Vg	mBase	status	Pmax	Pmin
mpc.gen = [
	1032	 743.5	 0.0	 1030.0	 -1030.0	 1.0	 100.0	 1	 1487	 0.0; % NUC
	1032	 738.0	 0.0	 738.0	 -738.0	 1.0	 100.0	 1	 1476	 0.0; % COW
	1034	 613.0	 0.0	 2294.0	 -2294.0	 1.0	 100.0	 1	 1226	 0.0; % COW
	1034	 519.0	 0.0	 918.0	 -918.0	 1.0	 100.0	 1	 1038	 0.0; % COW
	1034	 527.0	 0.0	 700.0	 -700.0	 1.0	 100.0	 1	 1054	 0.0; % NUC
	1131	 914.0	 0.0	 914.0	 -914.0	 1.0	 100.0	 1	 1828	 0.0; % COW
	1131	 914.0	 0.0	 1916.0	 -1916.0	 1.0	 100.0	 1	 1828	 0.0; % COW
	1131	 952.0	 0.0	 952.0	 -952.0	 1.0	 100.0	 1	 1904	 0.0; % NG
	1232	 846.0	 0.0	 1208.0	 -1208.0	 1.0	 100.0	 1	 1692	 0.0; % COW
	1232	 803.5	 0.0	 804.0	 -804.0	 1.0	 100.0	 1	 1607	 0.0; % NUC
	1331	 1285.5	 0.0	 1286.0	 -1286.0	 1.0	 100.0	 1	 2571	 0.0; % NUC
	1331	 1318.5	 0.0	 1319.0	 -1319.0	 1.0	 100.0	 1	 2637	 0.0; % COW
	1333	 1456.0	 0.0	 1456.0	 -1456.0	 1.0	 100.0	 1	 2912	 0.0; % COW
	1333	 1420.0	 0.0	 2746.0	 -2746.0	 1.0	 100.0	 1	 2840	 0.0; % NUC
	1333	 1558.5	 0.0	 1559.0	 -1559.0	 1.0	 100.0	 1	 3117	 0.0; % PEL
	1431	 2023.5	 0.0	 3559.0	 -3559.0	 1.0	 100.0	 1	 4047	 0.0; % COW
	1431	 2023.5	 0.0	 2057.0	 -2057.0	 1.0	 100.0	 1	 4047	 0.0; % COW
	1431	 2166.0	 0.0	 2166.0	 -2166.0	 1.0	 100.0	 1	 4332	 0.0; % PEL
	2030	 853.0	 0.0	 1070.0	 -1070.0	 1.0	 100.0	 1	 1706	 0.0; % COW
	2030	 792.0	 0.0	 792.0	 -792.0	 1.0	 100.0	 1	 1584	 0.0; % COW
	2130	 438.0	 0.0	 438.0	 -438.0	 1.0	 100.0	 1	 876	 0.0; % NG
	2130	 247.0	 0.0	 254.0	 -254.0	 1.0	 100.0	 1	 494	 0.0; % COW
	2130	 267.0	 0.0	 267.0	 -267.0	 1.0	 100.0	 1	 534	 0.0; % NG
	2130	 237.0	 0.0	 237.0	 -237.0	 1.0	 100.0	 1	 474	 0.0; % NG
	2233	 694.0	 0.0	 694.0	 -694.0	 1.0	 100.0	 1	 1388	 0.0; % COW
	2233	 611.0	 0.0	 611.0	 -611.0	 1.0	 100.0	 1	 1222	 0.0; % NG
	2233	 611.0	 0.0	 611.0	 -611.0	 1.0	 100.0	 1	 1222	 0.0; % NG
	2332	 634.0	 0.0	 634.0	 -634.0	 1.0	 100.0	 1	 1268	 0.0; % NUC
	2438	 580.5	 73.5	 728.0	 -581.0	 1.0	 100.0	 1	 1161	 0.0; % NG
	2438	 686.5	 367.0	 1902.0	 -1168.0	 1.0	 100.0	 1	 1373	 0.0; % NUC
	2438	 603.0	 624.0	 2301.0	 -1053.0	 1.0	 100.0	 1	 1206	 0.0; % COW
	2438	 560.0	 49.5	 659.0	 -560.0	 1.0	 100.0	 1	 1120	 0.0; % COW
	2438	 763.0	 0.0	 763.0	 -763.0	 1.0	 100.0	 1	 1526	 0.0; % COW
	2438	 581.5	 0.0	 582.0	 -582.0	 1.0	 100.0	 1	 1163	 0.0; % COW
	2438	 633.5	 380.0	 1910.0	 -1150.0	 1.0	 100.0	 1	 1267	 0.0; % COW
	2438	 -503.0	 0.0	 25.2	 -25.2	 1.0	 100.0	 1	 0	 -1006.0; % SYNC
	2533	 2534.0	 0.0	 2534.0	 -2534.0	 1.0	 100.0	 1	 5068	 0.0; % COW
	2630	 710.0	 0.0	 1346.0	 -1346.0	 1.0	 100.0	 1	 1420	 0.0; % COW
	2631	 193.5	 0.0	 194.0	 -194.0	 1.0	 100.0	 1	 387	 0.0; % NG
	2634	 2019.5	 0.0	 2020.0	 -2020.0	 1.0	 100.0	 1	 4039	 0.0; % COW
	2637	 1448.5	 0.0	 1449.0	 -1449.0	 1.0	 100.0	 1	 2897	 0.0; % NG
	2638	 -448.5	 0.0	 188.0	 -188.0	 1.0	 100.0	 1	 375	 -1272.0; % COW
	3133	 610.5	 0.0	 611.0	 -611.0	 1.0	 100.0	 1	 1221	 0.0; % NG
	3133	 627.5	 0.0	 628.0	 -628.0	 1.0	 100.0	 1	 1255	 0.0; % PEL
	3135	 328.5	 0.0	 329.0	 -329.0	 1.0	 100.0	 1	 657	 0.0; % COW
	3135	 277.0	 0.0	 277.0	 -277.0	 1.0	 100.0	 1	 554	 0.0; % NG
	3234	 402.5	 0.0	 403.0	 -403.0	 1.0	 100.0	 1	 805	 0.0; % COW
	3234	 420.0	 5.0	 1244.0	 -1234.0	 1.0	 100.0	 1	 840	 0.0; % NG
	3234	 477.5	 0.0	 478.0	 -478.0	 1.0	 100.0	 1	 955	 0.0; % COW
	3234	 440.5	 0.0	 441.0	 -441.0	 1.0	 100.0	 1	 881	 0.0; % COW
	3333	 751.5	 0.0	 752.0	 -752.0	 1.0	 100.0	 1	 1503	 0.0; % COW
	3333	 594.5	 0.0	 595.0	 -595.0	 1.0	 100.0	 1	 1189	 0.0; % NG
	3432	 121.0	 0.0	 583.0	 -583.0	 1.0	 100.0	 1	 1166	 -924.0; % NG
	3433	 463.5	 0.0	 464.0	 -464.0	 1.0	 100.0	 1	 927	 0.0; % COW
	3433	 483.0	 188.5	 939.0	 -562.0	 1.0	 100.0	 1	 966	 0.0; % COW
	3531	 305.0	 202.5	 1004.0	 -599.0	 1.0	 100.0	 1	 610	 0.0; % COW
	3531	 309.5	 0.0	 310.0	 -310.0	 1.0	 100.0	 1	 619	 0.0; % COW
	3531	 282.5	 0.0	 283.0	 -283.0	 1.0	 100.0	 1	 565	 0.0; % NG
	3631	 97.5	 0.0	 98.0	 -98.0	 1.0	 100.0	 1	 195	 0.0; % NG
	3631	 171.5	 0.0	 172.0	 -172.0	 1.0	 100.0	 1	 343	 0.0; % NG
	3731	 1519.0	 0.0	 1519.0	 -1519.0	 1.0	 100.0	 1	 3038	 0.0; % NG
	3831	 1558.0	 0.0	 1558.0	 -1558.0	 1.0	 100.0	 1	 3116	 0.0; % COW
	3835	 1301.5	 0.0	 1302.0	 -1302.0	 1.0	 100.0	 1	 2603	 0.0; % COW
	3835	 -255.0	 0.0	 12.0	 -12.0	 1.0	 100.0	 1	 0	 -510.0; % SYNC
	3836	 597.0	 0.0	 597.0	 -597.0	 1.0	 100.0	 1	 1194	 0.0; % COW
	3931	 31.0	 18.0	 151.0	 -115.0	 1.0	 100.0	 1	 62	 0.0; % NG
	3931	 768.0	 169.0	 1284.0	 -946.0	 1.0	 100.0	 1	 1536	 0.0; % NUC
	3932	 919.0	 115.5	 1150.0	 -919.0	 1.0	 100.0	 1	 1838	 0.0; % COW
	3933	 547.5	 0.0	 548.0	 -548.0	 1.0	 100.0	 1	 1095	 0.0; % COW
	3933	 432.5	 0.0	 433.0	 -433.0	 1.0	 100.0	 1	 865	 0.0; % NG
	3933	 848.0	 0.0	 848.0	 -848.0	 1.0	 100.0	 1	 1696	 0.0; % COW
	3933	 636.0	 107.5	 1256.0	 -1041.0	 1.0	 100.0	 1	 1272	 0.0; % COW
	3933	 432.5	 0.0	 433.0	 -433.0	 1.0	 100.0	 1	 865	 0.0; % NG
	3933	 135.0	 0.0	 360.0	 -360.0	 1.0	 100.0	 1	 719	 -449.0; % NUC
	4039	 1153.5	 0.0	 1154.0	 -1154.0	 1.0	 100.0	 1	 2307	 0.0; % COW
	4039	 1153.5	 0.0	 1459.0	 -1459.0	 1.0	 100.0	 1	 2307	 0.0; % COW
	4039	 1201.0	 0.0	 1201.0	 -1201.0	 1.0	 100.0	 1	 2402	 0.0; % NG
	4031	 1297.0	 0.0	 1297.0	 -1297.0	 1.0	 100.0	 1	 2594	 0.0; % COW
	4031	 1413.5	 0.0	 1414.0	 -1414.0	 1.0	 100.0	 1	 2827	 0.0; % NG
	4031	 1357.5	 0.0	 1358.0	 -1358.0	 1.0	 100.0	 1	 2715	 0.0; % COW
	4031	 1413.5	 0.0	 1414.0	 -1414.0	 1.0	 100.0	 1	 2827	 0.0; % NG
	4035	 1.0	 0.0	 255.0	 -255.0	 1.0	 100.0	 1	 2	 0.0; % COW
	4035	 0.5	 0.0	 307.0	 -307.0	 1.0	 100.0	 1	 1	 0.0; % COW
	4035	 0.5	 0.0	 1836.0	 -1836.0	 1.0	 100.0	 1	 1	 0.0; % COW
	4035	 0.5	 0.0	 488.0	 -488.0	 1.0	 100.0	 1	 1	 0.0; % COW
	4131	 1001.5	 0.0	 6482.0	 -6482.0	 1.0	 100.0	 1	 2003	 0.0; % COW
	4131	 878.5	 0.0	 879.0	 -879.0	 1.0	 100.0	 1	 1757	 0.0; % NG
	4132	 303.0	 0.0	 1473.0	 -1473.0	 1.0	 100.0	 1	 606	 0.0; % COW
	4132	 362.5	 0.0	 2847.0	 -2847.0	 1.0	 100.0	 1	 725	 0.0; % COW
	4132	 311.0	 0.0	 580.0	 -580.0	 1.0	 100.0	 1	 622	 0.0; % COW
	4132	 234.5	 0.0	 235.0	 -235.0	 1.0	 100.0	 1	 469	 0.0; % NG
	4132	 275.5	 0.0	 276.0	 -276.0	 1.0	 100.0	 1	 551	 0.0; % NG
	4231	 960.5	 0.0	 961.0	 -961.0	 1.0	 100.0	 1	 1921	 0.0; % COW
	4231	 888.5	 0.0	 889.0	 -889.0	 1.0	 100.0	 1	 1777	 0.0; % COW
	4231	 880.0	 0.0	 1808.0	 -1808.0	 1.0	 100.0	 1	 1760	 0.0; % NUC