%%%%%%%%%%%%%%%%%%%%%%%%%%%%%%%%%%%%%%%%%%%%%%%%%%%%%%%%%%%%%%%%%%%%%%%%%%%
%%%%                                                                  %%%%%
%%%%    IEEE PES Power Grid Library - Optimal Power Flow - v17.07     %%%%%
%%%%          (https://github.com/power-grid-lib/pglib-opf)           %%%%%
%%%%             Benchmark Group - Active Power Increase              %%%%%
%%%%                         27 - June - 2017                         %%%%%
%%%%                                                                  %%%%%
%%%%%%%%%%%%%%%%%%%%%%%%%%%%%%%%%%%%%%%%%%%%%%%%%%%%%%%%%%%%%%%%%%%%%%%%%%%
function mpc = pglib_opf_case6468_rte__api
mpc.version = '2';
mpc.baseMVA = 100.0;

%% bus data
%	bus_i	type	Pd	Qd	Gs	Bs	area	Vm	Va	baseKV	zone	Vmax	Vmin
mpc.bus = [
	1	 1	 0.00	 0.00	 0.0	 0.0	 1	    0.99271	  -19.51235	 45.0	 1	    1.00000	    0.88889;
	2	 1	 0.00	 0.00	 0.0	 0.0	 1	    1.05213	  -11.43476	 63.0	 1	    1.06349	    0.93651;
	3	 1	 11.70	 -1.20	 0.0	 0.0	 1	    1.02634	  -19.65127	 63.0	 1	    1.07937	    0.95238;
	4	 1	 33.80	 -8.20	 0.0	 0.0	 1	    1.07207	   -6.77192	 90.0	 1	    1.08889	    0.93333;
	5	 1	 11.00	 -0.90	 0.0	 0.0	 1	    1.06025	   -4.31913	 63.0	 1	    1.06349	    0.95238;
	6	 1	 15.64	 4.30	 0.0	 0.0	 1	    1.03681	   -9.91670	 63.0	 1	    1.07937	    0.92063;
	7	 1	 1.00	 -0.20	 0.0	 0.0	 1	    1.04634	   -9.89468	 63.0	 1	    1.07937	    0.92063;
	8	 1	 0.40	 -4.40	 0.0	 0.0	 1	    1.07494	  -12.48560	 225.0	 1	    1.08889	    0.88889;
	9	 1	 16.90	 0.00	 0.0	 0.0	 1	    1.03909	  -26.30524	 63.0	 1	    1.06349	    0.93651;
	10	 1	 0.00	 0.00	 0.0	 0.0	 1	    1.06933	  -15.10121	 90.0	 1	    1.07778	    0.92222;
	11	 1	 20.00	 -3.10	 0.0	 0.0	 1	    1.06933	  -15.10121	 90.0	 1	    1.07778	    0.92222;
	12	 1	 0.00	 0.00	 0.0	 0.0	 1	    1.02783	   -8.81953	 63.0	 1	    1.07937	    0.95238;
	13	 1	 0.00	 0.00	 0.0	 0.0	 1	    1.07660	   -2.94152	 380.0	 1	    1.10263	    1.05084;
	14	 1	 44.53	 3.60	 0.0	 0.0	 1	    1.07049	  -14.95140	 90.0	 1	    1.07778	    0.97778;
	15	 1	 0.00	 0.00	 0.0	 0.0	 1	    1.02720	  -15.04828	 63.0	 1	    1.07937	    0.92063;
	16	 1	 12.40	 1.50	 0.0	 0.0	 1	    1.03420	  -14.98337	 63.0	 1	    1.07937	    0.92063;
	17	 1	 11.20	 -0.60	 0.0	 0.0	 1	    1.05618	  -11.88198	 90.0	 1	    1.06667	    0.97778;
	18	 1	 0.00	 0.00	 0.0	 0.0	 1	    0.94723	  -14.33385	 45.0	 1	    1.00000	    0.88889;
	19	 1	 1.00	 0.00	 0.0	 0.0	 1	    1.02583	  -17.36643	 63.0	 1	    1.06349	    0.93651;
	20	 1	 2.30	 -18.30	 0.0	 0.0	 1	    0.94804	  -14.36343	 45.0	 1	    1.00000	    0.88889;
	21	 1	 6.50	 -1.90	 0.0	 0.0	 1	    1.03406	   -8.41945	 90.0	 1	    1.06667	    0.97778;
	22	 1	 18.29	 1.40	 0.0	 0.0	 1	    1.04836	   -8.87898	 63.0	 1	    1.07937	    0.95238;
	23	 1	 35.02	 4.60	 0.0	 0.0	 1	    1.01670	  -16.80705	 63.0	 1	    1.06349	    0.93651;
	24	 1	 9.70	 -2.80	 0.0	 0.0	 1	    1.06756	  -10.23071	 90.0	 1	    1.11111	    0.95556;
	25	 1	 46.50	 -6.10	 0.0	 0.0	 1	    1.07818	   -9.36682	 90.0	 1	    1.10000	    0.94444;
	26	 1	 24.67	 4.70	 0.0	 0.0	 1	    1.03772	   -7.23957	 90.0	 1	    1.06667	    0.97778;
	27	 1	 0.00	 0.00	 0.0	 0.0	 1	    1.08163	   -3.64540	 225.0	 1	    1.08444	    1.00444;
	28	 1	 0.48	 0.90	 0.0	 0.0	 1	    1.04595	  -17.86271	 63.0	 1	    1.07937	    0.95238;
	29	 1	 63.42	 1.80	 0.0	 0.0	 1	    1.02152	  -16.19981	 63.0	 1	    1.06349	    0.96825;
	30	 1	 29.80	 -1.90	 0.0	 0.0	 1	    1.07107	  -13.98139	 90.0	 1	    1.08889	    0.93333;
	31	 1	 0.00	 0.00	 0.0	 0.0	 1	    1.04338	  -14.60972	 63.0	 1	    1.06349	    0.93651;
	32	 1	 0.00	 0.00	 0.0	 0.0	 1	    1.06346	  -13.50698	 150.0	 1	    1.10667	    0.90000;
	33	 1	 0.00	 0.00	 0.0	 0.0	 1	    1.06036	  -13.19355	 225.0	 1	    1.08889	    0.93333;
	34	 1	 0.00	 0.00	 0.0	 0.0	 1	    1.06417	  -12.90210	 225.0	 1	    1.08889	    0.93333;
	35	 1	 0.00	 0.00	 0.0	 0.0	 1	    1.06926	  -10.67866	 380.0	 1	    1.10526	    1.03947;
	36	 1	 0.00	 0.00	 0.0	 0.0	 1	    1.06219	   -9.67536	 380.0	 1	    1.10526	    1.03947;
	37	 1	 2.77	 4.40	 0.0	 0.0	 1	    1.02896	  -11.27821	 63.0	 1	    1.07937	    0.92063;
	38	 1	 7.00	 -1.00	 0.0	 0.0	 1	    1.06553	  -16.79626	 63.0	 1	    1.09524	    0.93651;
	39	 1	 35.00	 -6.80	 0.0	 0.0	 1	    1.02654	  -20.73408	 90.0	 1	    1.07778	    0.97778;
	40	 1	 38.15	 0.50	 0.0	 0.0	 1	    1.06349	  -14.34413	 90.0	 1	    1.07778	    0.97778;
	41	 1	 0.00	 0.00	 0.0	 0.0	 1	    1.08512	  -14.82559	 225.0	 1	    1.09194	    1.00444;
	42	 1	 0.00	 0.00	 0.0	 0.0	 1	    1.12450	   -4.78879	 63.0	 1	    1.13061	    0.95238;
	43	 1	 4.09	 2.80	 0.0	 0.0	 1	    1.05384	  -15.21762	 90.0	 1	    1.07778	    0.97778;
	44	 1	 12.40	 0.00	 0.0	 0.0	 1	    1.03968	  -19.02638	 63.0	 1	    1.06349	    0.95238;
	45	 1	 3.61	 2.10	 0.0	 0.0	 1	    1.03519	  -13.51476	 90.0	 1	    1.06667	    0.97778;
	46	 1	 0.00	 0.00	 0.0	 0.0	 1	    1.01537	  -19.26218	 63.0	 1	    1.06349	    0.93651;
	47	 2	 0.00	 0.00	 0.0	 0.0	 1	    1.01302	  -19.88510	 63.0	 1	    1.06349	    0.93651;
	48	 1	 40.92	 1.30	 0.0	 0.0	 1	    1.04158	   -9.07443	 90.0	 1	    1.07778	    0.92222;
	49	 1	 6.90	 -2.50	 0.0	 0.0	 1	    1.04160	  -15.42315	 63.0	 1	    1.06349	    0.93651;
	50	 1	 0.00	 0.00	 0.0	 0.0	 1	    1.06672	  -21.58073	 63.0	 1	    1.07436	    0.93651;
	51	 1	 0.00	 0.00	 0.0	 0.0	 1	    1.05295	  -17.02933	 225.0	 1	    1.08889	    0.93333;
	52	 1	 6.98	 2.50	 0.0	 0.0	 1	    1.03735	  -15.33664	 90.0	 1	    1.06667	    0.97778;
	53	 1	 0.20	 -0.30	 0.0	 0.0	 1	    1.02467	  -17.82015	 63.0	 1	    1.04762	    0.95238;
	54	 1	 0.90	 -0.80	 0.0	 0.0	 1	    1.04864	   -6.21458	 90.0	 1	    1.06667	    0.97778;
	55	 1	 36.22	 5.40	 0.0	 0.0	 1	    1.07202	  -17.64622	 225.0	 1	    1.08889	    1.00444;
	56	 1	 50.79	 6.30	 0.0	 0.0	 1	    1.05622	  -15.58531	 225.0	 1	    1.08889	    1.00444;
	57	 2	 0.00	 0.00	 0.0	 0.0	 1	    1.04846	   -8.97320	 63.0	 1	    1.07937	    0.92063;
	58	 1	 129.49	 28.80	 0.0	 0.0	 1	    1.07182	  -17.65934	 225.0	 1	    1.08889	    1.00444;
	59	 1	 6.26	 1.40	 0.0	 0.0	 1	    1.03123	  -17.42682	 63.0	 1	    1.07937	    0.95238;
	60	 1	 0.00	 0.00	 0.0	 0.0	 1	    1.04891	  -15.60537	 63.0	 1	    1.07937	    0.95238;
	61	 1	 35.62	 5.10	 0.0	 0.0	 1	    1.04454	  -13.88089	 63.0	 1	    1.07937	    0.95238;
	62	 1	 0.00	 0.00	 0.0	 0.0	 1	    1.04914	  -15.01035	 63.0	 1	    1.07937	    0.95238;
	63	 1	 15.40	 2.00	 0.0	 0.0	 1	    1.01434	   -9.25392	 63.0	 1	    1.07937	    0.95238;
	64	 1	 47.20	 -0.70	 0.0	 0.0	 1	    1.07596	   -8.05686	 225.0	 1	    1.08889	    0.88889;
	65	 1	 12.03	 2.90	 0.0	 0.0	 1	    1.05649	  -14.47603	 63.0	 1	    1.07937	    0.95238;
	66	 1	 11.10	 -9.30	 0.0	 0.0	 1	    1.04844	  -20.98798	 63.0	 1	    1.06349	    0.93651;
	67	 1	 0.00	 0.00	 0.0	 0.0	 1	    1.03178	   -2.78750	 63.0	 1	    1.07937	    0.92063;
	68	 1	 41.10	 -6.80	 0.0	 0.0	 1	    1.02877	  -17.01145	 63.0	 1	    1.06349	    0.93651;
	69	 1	 14.40	 -3.20	 0.0	 0.0	 1	    1.06349	  -13.00406	 63.0	 1	    1.06349	    0.95238;
	70	 1	 10.47	 0.60	 0.0	 0.0	 1	    1.02387	   -0.82570	 63.0	 1	    1.07937	    0.95238;
	71	 1	 67.15	 10.70	 0.0	 0.0	 1	    1.04650	   -1.30318	 63.0	 1	    1.04762	    0.95238;
	72	 1	 0.00	 0.00	 0.0	 0.0	 1	    1.08889	   -6.18942	 225.0	 1	    1.08889	    1.00444;
	73	 1	 0.00	 0.00	 0.0	 0.0	 1	    1.08826	   -5.99063	 225.0	 1	    1.08889	    1.00444;
	74	 1	 37.10	 -8.70	 0.0	 0.0	 1	    1.07616	   -8.05836	 225.0	 1	    1.08889	    0.88889;
	75	 1	 23.23	 1.40	 0.0	 0.0	 1	    1.06568	  -13.20481	 90.0	 1	    1.06825	    0.97778;
	76	 1	 7.58	 3.20	 0.0	 0.0	 1	    1.07849	   -5.88972	 225.0	 1	    1.08889	    0.98667;
	77	 1	 28.90	 -5.20	 0.0	 0.0	 1	    1.04920	  -16.05977	 63.0	 1	    1.06349	    0.93651;
	78	 1	 0.00	 0.00	 0.0	 0.0	 1	    1.03395	   -7.33052	 63.0	 1	    1.07937	    0.92063;
	79	 1	 0.00	 0.00	 0.0	 0.0	 1	    1.01082	  -17.40480	 63.0	 1	    1.04762	    0.95238;
	80	 1	 26.10	 -1.00	 0.0	 0.0	 1	    1.05824	  -16.39646	 225.0	 1	    1.08889	    1.00444;
	81	 1	 31.41	 3.50	 0.0	 0.0	 1	    1.05825	  -16.39651	 225.0	 1	    1.08889	    1.00444;
	82	 1	 9.80	 -3.20	 0.0	 0.0	 1	    1.03248	  -16.17665	 63.0	 1	    1.06349	    0.93651;
	83	 1	 102.29	 46.20	 0.0	 0.0	 1	    1.06625	  -14.95216	 225.0	 1	    1.08889	    1.00444;
	84	 1	 -1.00	 -1.10	 0.0	 0.0	 1	    1.05443	    5.96923	 63.0	 1	    1.06349	    0.93651;
	85	 1	 2.30	 -0.80	 0.0	 0.0	 1	    1.04926	  -12.67084	 63.0	 1	    1.06349	    0.93651;
	86	 1	 30.30	 -3.70	 0.0	 0.0	 1	    1.02937	  -11.34908	 90.0	 1	    1.06667	    0.97778;
	87	 1	 0.00	 0.00	 0.0	 0.0	 1	    1.02995	   -8.49917	 63.0	 1	    1.07937	    0.95238;
	88	 1	 11.50	 -3.80	 0.0	 0.0	 1	    1.02993	  -15.49091	 63.0	 1	    1.06349	    0.93651;
	89	 1	 17.70	 -4.90	 0.0	 0.0	 1	    1.05911	  -17.10142	 90.0	 1	    1.07778	    0.97778;
	90	 1	 0.70	 -0.30	 0.0	 0.0	 1	    0.94635	  -15.03876	 45.0	 1	    1.00000	    0.88889;
	91	 1	 0.00	 0.00	 0.0	 0.0	 1	    0.94723	  -14.33385	 45.0	 1	    1.00000	    0.88889;
	92	 1	 29.73	 0.40	 0.0	 0.0	 1	    1.04679	  -14.41488	 63.0	 1	    1.06349	    0.96825;
	93	 1	 2.30	 -2.50	 0.0	 0.0	 1	    0.96942	  -12.02582	 45.0	 1	    1.00000	    0.88889;
	94	 1	 13.00	 -4.90	 0.0	 0.0	 1	    1.05870	  -10.88436	 90.0	 1	    1.06667	    0.97778;
	95	 1	 45.73	 3.80	 0.0	 0.0	 1	    1.03705	  -13.27521	 90.0	 1	    1.06667	    0.97778;
	96	 1	 0.90	 -0.60	 0.0	 0.0	 1	    1.04159	  -16.99024	 63.0	 1	    1.06349	    0.93651;
	97	 1	 56.56	 0.80	 0.0	 0.0	 1	    1.05467	  -19.39563	 63.0	 1	    1.07937	    0.92063;
	98	 1	 6.60	 -2.20	 0.0	 0.0	 1	    1.04703	  -15.22692	 63.0	 1	    1.07937	    0.95238;
	99	 1	 26.36	 3.20	 0.0	 0.0	 1	    1.04874	  -13.63677	 63.0	 1	    1.07937	    0.95238;
	100	 1	 55.72	 7.40	 0.0	 0.0	 1	    1.01940	  -22.14867	 63.0	 1	    1.06349	    0.93651;
	101	 1	 14.00	 -1.50	 0.0	 0.0	 1	    1.03677	   -1.45920	 63.0	 1	    1.06349	    0.93651;
	102	 2	 0.00	 0.00	 0.0	 0.0	 1	    1.06007	   -2.12630	 63.0	 1	    1.07937	    0.95238;
	103	 1	 13.20	 -4.00	 0.0	 0.0	 1	    1.04717	  -13.74683	 63.0	 1	    1.07937	    0.95238;
	104	 1	 0.00	 0.00	 0.0	 0.0	 1	    1.08372	  -11.26287	 225.0	 1	    1.08889	    0.98667;
	105	 1	 28.50	 -1.60	 0.0	 0.0	 1	    1.06672	  -11.45863	 225.0	 1	    1.08889	    0.88889;
	106	 1	 46.69	 2.20	 0.0	 0.0	 1	    1.07935	  -16.40491	 90.0	 1	    1.10000	    0.94444;
	107	 1	 86.17	 4.90	 0.0	 0.0	 1	    1.05949	  -21.35189	 225.0	 1	    1.08444	    1.00889;
	108	 1	 7.90	 -4.60	 0.0	 0.0	 1	    1.06897	  -10.22058	 90.0	 1	    1.07778	    0.97778;
	109	 1	 72.93	 7.80	 0.0	 0.0	 1	    1.05858	  -12.15636	 63.0	 1	    1.06349	    0.93651;
	110	 1	 0.00	 0.00	 0.0	 0.0	 1	    1.03694	   -7.24623	 225.0	 1	    1.08889	    0.93333;
	111	 1	 34.20	 -7.20	 0.0	 0.0	 1	    1.02019	  -16.11689	 63.0	 1	    1.06349	    0.96825;
	112	 1	 0.00	 0.00	 0.0	 0.0	 1	    1.03454	  -16.47775	 63.0	 1	    1.04762	    0.95238;
	113	 1	 0.00	 0.00	 0.0	 0.0	 1	    1.07403	  -13.65802	 225.0	 1	    1.08889	    1.00444;
	114	 1	 11.50	 -1.00	 0.0	 0.0	 1	    1.05687	  -20.50183	 63.0	 1	    1.06349	    0.93651;
	115	 1	 0.00	 0.00	 0.0	 0.0	 1	    1.07661	   -2.94161	 380.0	 1	    1.10526	    1.05085;
	116	 1	 0.00	 0.00	 0.0	 0.0	 1	    1.07661	   -2.94161	 380.0	 1	    1.10526	    1.05085;
	117	 1	 13.20	 -2.20	 0.0	 0.0	 1	    1.03795	  -18.65431	 63.0	 1	    1.07937	    0.95238;
	118	 1	 2.41	 0.80	 0.0	 0.0	 1	    1.06786	  -12.93063	 90.0	 1	    1.07012	    0.97778;
	119	 1	 42.72	 0.70	 0.0	 0.0	 1	    1.03779	  -11.87201	 63.0	 1	    1.06349	    0.93651;
	120	 1	 29.90	 -1.30	 0.0	 0.0	 1	    1.03553	  -17.80496	 63.0	 1	    1.06349	    0.93651;
	121	 1	 18.41	 3.70	 0.0	 0.0	 1	    1.04130	  -10.22050	 63.0	 1	    1.07937	    0.92063;
	122	 2	 0.00	 0.00	 0.0	 0.0	 1	    1.04719	  -14.36398	 63.0	 1	    1.07937	    0.95238;
	123	 1	 10.83	 2.70	 0.0	 0.0	 1	    1.04595	  -14.44572	 63.0	 1	    1.07937	    0.95238;
	124	 1	 8.90	 -4.00	 0.0	 0.0	 1	    1.05944	   -8.07592	 90.0	 1	    1.06667	    0.97778;
	125	 1	 4.80	 -3.10	 0.0	 0.0	 1	    1.06779	   -6.20645	 63.0	 1	    1.07937	    0.95238;
	126	 1	 -0.30	 0.50	 0.0	 0.0	 1	    1.04953	  -11.71047	 63.0	 1	    1.06349	    0.93651;
	127	 1	 7.82	 0.40	 0.0	 0.0	 1	    1.01757	    0.23384	 63.0	 1	    1.04762	    0.95238;
	128	 1	 16.73	 5.60	 0.0	 0.0	 1	    1.05931	   -3.79717	 63.0	 1	    1.06349	    0.96825;
	129	 1	 22.62	 14.30	 0.0	 0.0	 1	    1.04662	   -6.66156	 63.0	 1	    1.06349	    0.96825;
	130	 1	 0.00	 0.00	 0.0	 0.0	 1	    1.07062	   -5.72438	 225.0	 1	    1.08444	    1.00889;
	131	 1	 98.68	 2.00	 0.0	 0.0	 1	    1.04659	  -11.43111	 225.0	 1	    1.08444	    1.00889;
	132	 2	 11.90	 0.00	 0.0	 0.0	 1	    1.06777	   12.06684	 90.0	 1	    1.07778	    0.92222;
	133	 1	 1.56	 0.30	 0.0	 0.0	 1	    1.02149	  -19.48789	 63.0	 1	    1.04762	    0.95238;
	134	 1	 86.29	 15.70	 0.0	 0.0	 1	    1.06447	  -16.92799	 225.0	 1	    1.08889	    1.00444;
	135	 1	 0.00	 0.00	 0.0	 0.0	 1	    1.07228	  -17.51072	 225.0	 1	    1.08889	    1.00444;
	136	 1	 22.62	 2.30	 0.0	 0.0	 1	    1.04161	  -20.56818	 90.0	 1	    1.07778	    0.97778;
	137	 2	 13.40	 -9.10	 0.0	 0.0	 1	    1.02075	  -22.25197	 63.0	 1	    1.06349	    0.96825;
	138	 1	 0.00	 0.00	 0.0	 0.0	 1	    1.01950	  -18.77743	 150.0	 1	    1.08000	    0.96667;
	139	 1	 8.60	 -1.00	 0.0	 0.0	 1	    1.06404	  -16.57685	 63.0	 1	    1.07937	    0.92063;
	140	 1	 0.00	 0.00	 0.0	 0.0	 1	    1.08889	  -14.00179	 225.0	 1	    1.08889	    1.00000;
	141	 1	 0.00	 0.00	 0.0	 0.0	 1	    1.09836	  -11.53363	 380.0	 1	    1.10526	    1.05263;
	142	 1	 19.01	 1.30	 0.0	 0.0	 1	    1.03501	  -17.03568	 63.0	 1	    1.07937	    0.95238;
	143	 1	 0.00	 0.00	 0.0	 0.0	 1	    1.07669	  -13.04243	 225.0	 1	    1.08889	    0.98667;
	144	 1	 0.00	 0.00	 0.0	 -64.0	 1	    1.07037	   -7.86713	 20.0	 1	    1.15000	    0.80000;
	145	 1	 25.51	 10.00	 0.0	 0.0	 1	    1.07917	  -11.07016	 90.0	 1	    1.11111	    0.95556;
	146	 1	 30.81	 6.20	 0.0	 0.0	 1	    1.07655	   -7.77675	 225.0	 1	    1.08889	    0.96889;
	147	 1	 0.00	 0.00	 0.0	 0.0	 1	    1.08615	   -7.13503	 380.0	 1	    1.10526	    1.00000;
	148	 1	 30.09	 3.60	 0.0	 0.0	 1	    1.04639	  -20.23291	 63.0	 1	    1.06349	    0.93651;
	149	 1	 7.58	 2.20	 0.0	 0.0	 1	    1.03245	  -13.73074	 63.0	 1	    1.06349	    0.93651;
	150	 1	 21.54	 5.10	 0.0	 0.0	 1	    1.03137	  -15.17035	 90.0	 1	    1.06667	    0.97778;
	151	 1	 50.42	 5.60	 0.0	 0.0	 1	    1.04072	  -15.11149	 63.0	 1	    1.06349	    0.93651;
	152	 1	 0.00	 0.00	 0.0	 0.0	 1	    1.02001	  -16.00818	 63.0	 1	    1.06349	    0.96825;
	153	 1	 41.16	 5.90	 0.0	 7.7	 1	    1.02012	  -14.77700	 63.0	 1	    1.06349	    0.96825;
	154	 1	 24.55	 0.60	 0.0	 0.0	 1	    1.03627	  -17.61484	 63.0	 1	    1.06349	    0.93651;
	155	 1	 0.00	 0.00	 0.0	 0.0	 1	    1.06258	  -13.70185	 225.0	 1	    1.08889	    0.93333;
	156	 2	 0.00	 0.00	 0.0	 0.0	 1	    1.07936	    5.67936	 63.0	 1	    1.07937	    0.92063;
	157	 1	 0.00	 0.00	 0.0	 0.0	 1	    1.01997	  -16.01650	 63.0	 1	    1.06349	    0.96825;
	158	 1	 -0.10	 -2.10	 0.0	 0.0	 1	    0.91097	  -17.06953	 45.0	 1	    1.00000	    0.88889;
	159	 2	 0.00	 0.00	 0.0	 0.0	 1	    0.96104	  -15.26444	 45.0	 1	    1.00000	    0.88889;
	160	 1	 0.00	 0.00	 0.0	 0.0	 1	    1.02494	  -18.98041	 63.0	 1	    1.06349	    0.93651;
	161	 1	 35.50	 2.30	 0.0	 0.0	 1	    1.07189	  -10.20379	 225.0	 1	    1.08889	    0.88889;
	162	 1	 37.91	 7.40	 0.0	 0.0	 1	    1.07167	  -10.20794	 225.0	 1	    1.08889	    0.88889;
	163	 1	 0.40	 -1.60	 0.0	 0.0	 1	    1.03554	  -11.73776	 90.0	 1	    1.06667	    0.97778;
	164	 1	 0.00	 0.00	 0.0	 0.0	 1	    1.05235	  -15.40448	 63.0	 1	    1.07937	    0.95238;
	165	 1	 0.00	 0.00	 0.0	 0.0	 1	    1.05235	  -15.40448	 63.0	 1	    1.07937	    0.95238;
	166	 1	 11.30	 -3.90	 0.0	 0.0	 1	    1.08617	  -10.34046	 20.0	 1	    1.15000	    0.80000;
	167	 1	 6.98	 1.40	 0.0	 0.0	 1	    1.04363	  -14.28176	 90.0	 1	    1.06667	    0.97778;
	168	 1	 7.80	 -0.90	 0.0	 0.0	 1	    1.04585	  -14.24140	 90.0	 1	    1.06667	    0.97778;
	169	 1	 0.00	 0.00	 0.0	 0.0	 1	    1.08614	  -10.33572	 225.0	 1	    1.08642	    1.00444;
	170	 1	 9.10	 -1.10	 0.0	 0.0	 1	    1.05255	   -9.69176	 90.0	 1	    1.06667	    0.97778;
	171	 1	 72.21	 6.10	 0.0	 0.0	 1	    1.05650	  -17.89830	 90.0	 1	    1.07778	    0.97778;
	172	 1	 21.40	 -1.80	 0.0	 0.0	 1	    1.04746	  -19.82836	 90.0	 1	    1.07778	    0.97778;
	173	 1	 0.00	 0.00	 0.0	 0.0	 1	    1.07390	  -16.46824	 225.0	 1	    1.08889	    1.00444;
	174	 1	 32.01	 6.60	 0.0	 0.0	 1	    1.07371	   -5.26055	 90.0	 1	    1.08889	    0.93333;
	175	 1	 35.70	 -1.50	 0.0	 0.0	 1	    1.08681	  -15.37748	 90.0	 1	    1.11111	    0.95556;
	176	 1	 0.00	 0.00	 0.0	 0.0	 1	    1.03593	   -4.14141	 63.0	 1	    1.07937	    0.92063;
	177	 1	 0.00	 0.00	 0.0	 0.0	 1	    1.03034	   -4.22401	 63.0	 1	    1.07937	    0.92063;
	178	 2	 0.00	 0.00	 0.0	 0.0	 1	    1.08040	    3.00292	 150.0	 1	    1.10000	    0.90000;
	179	 1	 0.00	 0.00	 0.0	 0.0	 1	    1.07815	  -10.69138	 225.0	 1	    1.08889	    1.00444;
	180	 1	 0.00	 0.00	 0.0	 0.0	 1	    1.07815	  -10.69138	 225.0	 1	    1.08889	    1.00444;
	181	 1	 0.00	 0.00	 0.0	 -32.0	 1	    0.97503	    1.00733	 20.0	 1	    1.15000	    0.80000;
	182	 1	 0.00	 0.00	 0.0	 -32.0	 1	    1.00722	    0.85904	 20.0	 1	    1.15000	    0.80000;
	183	 1	 0.00	 0.00	 0.0	 0.0	 1	    1.01766	    0.24188	 63.0	 1	    1.04762	    0.95238;
	184	 1	 0.00	 0.00	 0.0	 -80.0	 1	    1.07815	  -10.69137	 225.0	 1	    1.08889	    1.00444;
	185	 1	 12.10	 -5.90	 0.0	 0.0	 1	    1.05289	  -16.58189	 63.0	 1	    1.07937	    0.92063;
	186	 1	 19.26	 3.10	 0.0	 0.0	 1	    1.04466	  -12.24496	 63.0	 1	    1.06349	    0.93651;
	187	 1	 6.50	 0.30	 0.0	 0.0	 1	    1.02337	  -17.50740	 63.0	 1	    1.07937	    0.95238;
	188	 1	 3.61	 0.40	 0.0	 0.0	 1	    1.06727	  -11.70013	 90.0	 1	    1.07778	    0.97778;
	189	 1	 26.36	 2.40	 0.0	 0.0	 1	    1.02825	  -17.79787	 63.0	 1	    1.07937	    0.95238;
	190	 1	 1.40	 -0.70	 0.0	 0.0	 1	    1.03796	  -10.61317	 90.0	 1	    1.06667	    0.97778;
	191	 2	 0.00	 0.00	 0.0	 0.0	 1	    1.05750	   -1.82792	 63.0	 1	    1.07937	    0.92063;
	192	 1	 15.04	 1.10	 0.0	 0.0	 1	    1.00403	  -11.62613	 63.0	 1	    1.07937	    0.92063;
	193	 2	 0.00	 0.00	 0.0	 0.0	 1	    0.95428	  -16.35793	 45.0	 1	    1.00000	    0.88889;
	194	 1	 12.70	 -1.30	 0.0	 0.0	 1	    1.05297	  -10.18805	 90.0	 1	    1.06667	    0.97778;
	195	 1	 7.30	 -1.40	 0.0	 0.0	 1	    1.04806	   -9.81491	 63.0	 1	    1.07937	    0.92063;
	196	 1	 9.27	 5.30	 0.0	 0.0	 1	    1.07307	  -14.09450	 225.0	 1	    1.08889	    1.00444;
	197	 2	 1.40	 -3.20	 0.0	 0.0	 1	    1.07791	    1.65903	 63.0	 1	    1.07937	    0.92063;
	198	 1	 0.00	 0.00	 0.0	 0.0	 1	    1.09206	  -16.99551	 63.0	 1	    1.09743	    0.95238;
	199	 1	 0.00	 0.00	 0.0	 0.0	 1	    1.09206	  -16.99555	 63.0	 1	    1.09743	    0.95238;
	200	 1	 25.00	 -4.90	 0.0	 0.0	 1	    1.05532	  -22.99109	 63.0	 1	    1.07937	    0.92063;
	201	 1	 8.50	 -2.40	 0.0	 0.0	 1	    1.03522	  -12.89384	 63.0	 1	    1.07937	    0.92063;
	202	 1	 11.31	 0.40	 0.0	 0.0	 1	    1.01760	  -17.20099	 90.0	 1	    1.06667	    0.97778;
	203	 1	 0.00	 0.00	 0.0	 0.0	 1	    1.07896	  -12.39683	 225.0	 1	    1.08889	    1.00000;
	204	 1	 63.18	 20.60	 0.0	 0.0	 1	    1.06370	  -12.15206	 225.0	 1	    1.08889	    0.88889;
	205	 1	 34.30	 -1.40	 0.0	 0.0	 1	    1.01211	  -21.18963	 63.0	 1	    1.06349	    0.96825;
	206	 1	 29.73	 4.70	 0.0	 0.0	 1	    1.08314	   -0.52206	 90.0	 1	    1.10000	    0.94444;
	207	 1	 0.00	 0.00	 0.0	 0.0	 1	    1.08648	   -5.00949	 225.0	 1	    1.08889	    0.96889;
	208	 1	 0.00	 0.00	 0.0	 0.0	 1	    1.09815	   -4.26881	 380.0	 1	    1.10526	    1.00000;
	209	 1	 50.54	 2.20	 0.0	 0.0	 1	    1.01872	  -19.17943	 63.0	 1	    1.06349	    0.96825;
	210	 1	 26.80	 -0.40	 0.0	 0.0	 1	    1.02187	   -8.68785	 63.0	 1	    1.06349	    0.96825;
	211	 1	 12.00	 -2.00	 0.0	 0.0	 1	    1.04622	  -12.21987	 90.0	 1	    1.07778	    0.97778;
	212	 1	 3.49	 1.30	 0.0	 0.0	 1	    1.03480	  -13.09642	 63.0	 1	    1.06349	    0.96825;
	213	 1	 51.39	 6.60	 0.0	 0.0	 1	    1.00398	  -10.31679	 63.0	 1	    1.06349	    0.96825;
	214	 1	 35.74	 13.30	 0.0	 0.0	 1	    1.00404	  -10.13130	 63.0	 1	    1.06349	    0.96825;
	215	 1	 0.00	 0.00	 0.0	 0.0	 1	    1.04890	  -10.06381	 225.0	 1	    1.08444	    1.00889;
	216	 1	 0.00	 0.00	 0.0	 0.0	 1	    1.04884	  -10.04392	 225.0	 1	    1.08444	    1.00889;
	217	 1	 39.83	 2.00	 0.0	 0.0	 1	    1.05059	  -17.87871	 90.0	 1	    1.07778	    0.97778;
	218	 1	 0.00	 0.00	 0.0	 0.0	 1	    1.07409	  -14.78367	 225.0	 1	    1.08889	    1.00444;
	219	 1	 15.40	 -7.40	 0.0	 0.0	 1	    1.02411	   -9.17166	 63.0	 1	    1.06349	    0.95238;
	220	 1	 23.50	 -0.60	 0.0	 0.0	 1	    1.03582	   -9.86325	 90.0	 1	    1.06667	    0.97778;
	221	 1	 0.90	 -0.90	 0.0	 0.0	 1	    1.04834	   -6.18643	 90.0	 1	    1.06667	    0.97778;
	222	 1	 8.80	 -1.30	 0.0	 0.0	 1	    1.04129	   -9.91890	 90.0	 1	    1.06667	    0.97778;
	223	 1	 13.24	 1.50	 0.0	 0.0	 1	    1.02374	   -9.83999	 63.0	 1	    1.07937	    0.95238;
	224	 1	 14.10	 -11.30	 0.0	 0.0	 1	    1.03670	   -9.25912	 63.0	 1	    1.06349	    0.93651;
	225	 1	 0.00	 0.00	 0.0	 0.0	 1	    1.07923	   -6.53221	 225.0	 1	    1.08889	    0.93333;
	226	 1	 32.00	 -2.30	 0.0	 0.0	 1	    1.03153	  -11.14779	 63.0	 1	    1.07937	    0.92063;
	227	 2	 0.00	 0.00	 0.0	 0.0	 1	    1.08035	    3.00389	 150.0	 1	    1.10000	    0.90000;
	228	 1	 91.10	 34.10	 0.0	 0.0	 1	    1.04561	  -10.76506	 225.0	 1	    1.08444	    1.00889;
	229	 1	 89.90	 49.10	 0.0	 0.0	 1	    1.04537	  -10.76154	 225.0	 1	    1.08444	    1.00889;
	230	 1	 4.81	 0.20	 0.0	 0.0	 1	    1.02635	  -17.39074	 63.0	 1	    1.06349	    0.95238;
	231	 1	 9.90	 -2.00	 0.0	 0.0	 1	    1.02646	  -17.90799	 63.0	 1	    1.06349	    0.95238;
	232	 1	 14.60	 -5.10	 0.0	 0.0	 1	    1.05446	  -12.37496	 63.0	 1	    1.07937	    0.92063;
	233	 1	 0.00	 0.00	 0.0	 0.0	 1	    1.04497	  -10.99377	 225.0	 1	    1.08889	    0.97778;
	234	 1	 6.00	 -2.40	 0.0	 0.0	 1	    1.04941	   -8.58805	 90.0	 1	    1.06667	    0.97778;
	235	 1	 7.94	 1.50	 0.0	 0.0	 1	    1.07574	   -2.28100	 90.0	 1	    1.08889	    0.93333;
	236	 1	 0.00	 0.00	 0.0	 0.0	 1	    1.07664	  -15.84267	 20.0	 1	    1.15000	    0.80000;
	237	 1	 26.36	 6.10	 0.0	 0.0	 1	    1.07664	  -15.84267	 90.0	 1	    1.08889	    0.93333;
	238	 1	 18.05	 2.40	 0.0	 0.0	 1	    1.07429	  -12.73835	 225.0	 1	    1.08889	    0.88889;
	239	 1	 19.00	 -0.80	 0.0	 0.0	 1	    1.05467	   -7.42430	 90.0	 1	    1.07778	    0.92222;
	240	 1	 45.01	 1.00	 0.0	 0.0	 1	    1.02711	  -18.90773	 63.0	 1	    1.06349	    0.93651;
	241	 1	 19.00	 -2.00	 0.0	 0.0	 1	    1.03019	  -13.93726	 90.0	 1	    1.06667	    0.97778;
	242	 1	 52.11	 2.40	 0.0	 0.0	 1	    1.02657	  -24.94052	 63.0	 1	    1.06349	    0.95238;
	243	 1	 39.59	 4.70	 0.0	 0.0	 1	    1.03402	   -7.32585	 63.0	 1	    1.07937	    0.92063;
	244	 1	 42.72	 0.50	 0.0	 0.0	 1	    1.02263	  -11.17416	 90.0	 1	    1.07778	    0.92222;
	245	 1	 48.26	 4.70	 0.0	 0.0	 1	    1.01101	  -18.45107	 63.0	 1	    1.06349	    0.96825;
	246	 1	 21.90	 -5.10	 0.0	 0.0	 1	    1.02612	  -15.24755	 63.0	 1	    1.07937	    0.92063;
	247	 1	 52.83	 2.50	 0.0	 0.0	 1	    1.00040	   -3.13830	 90.0	 1	    1.07778	    0.92222;
	248	 1	 12.88	 0.90	 0.0	 0.0	 1	    1.01071	  -15.20227	 63.0	 1	    1.07937	    0.92063;
	249	 2	 17.09	 2.80	 0.0	 0.0	 1	    1.00821	  -14.94715	 63.0	 1	    1.06349	    0.93651;
	250	 1	 0.00	 0.00	 0.0	 0.0	 1	    1.04753	  -13.13701	 225.0	 1	    1.08889	    0.93333;
	251	 1	 27.20	 5.60	 0.0	 0.0	 1	    1.05544	  -15.79840	 225.0	 1	    1.08889	    1.00444;
	252	 1	 19.50	 -2.30	 0.0	 0.0	 1	    1.03894	  -16.99198	 63.0	 1	    1.07937	    0.92063;
	253	 1	 20.50	 -6.80	 0.0	 0.0	 1	    1.02326	  -20.12050	 63.0	 1	    1.07937	    0.95238;
	254	 1	 6.74	 0.30	 0.0	 0.0	 1	    1.03971	  -12.31349	 90.0	 1	    1.06667	    0.97778;
	255	 1	 7.50	 -3.10	 0.0	 0.0	 1	    1.04056	  -11.00269	 90.0	 1	    1.06667	    0.97778;
	256	 1	 51.63	 4.80	 0.0	 0.0	 1	    1.04821	  -15.52638	 63.0	 1	    1.07937	    0.95238;
	257	 1	 13.60	 -0.80	 0.0	 0.0	 1	    1.05371	  -17.12629	 63.0	 1	    1.07937	    0.95238;
	258	 1	 9.03	 1.80	 0.0	 0.0	 1	    1.02376	  -11.27139	 63.0	 1	    1.06349	    0.93651;
	259	 2	 1.70	 0.00	 0.0	 0.0	 1	    1.04307	  -13.51845	 63.0	 1	    1.07937	    0.92063;
	260	 1	 0.00	 0.00	 0.0	 0.0	 1	    1.07957	  -12.53047	 225.0	 1	    1.08889	    1.00000;
	261	 2	 0.00	 0.00	 0.0	 0.0	 1	    1.03982	  -10.11327	 90.0	 1	    1.07778	    0.92222;
	262	 1	 33.46	 0.50	 0.0	 0.0	 1	    1.04774	  -13.51968	 63.0	 1	    1.07937	    0.95238;
	263	 1	 0.00	 0.00	 0.0	 0.0	 1	    1.08106	  -11.29929	 225.0	 1	    1.08889	    0.98667;
	264	 2	 0.00	 0.00	 0.0	 0.0	 1	    1.02608	  -22.72897	 63.0	 1	    1.07937	    0.92063;
	265	 1	 0.00	 0.00	 0.0	 80.0	 1	    1.07664	  -10.95318	 225.0	 1	    1.08889	    0.88889;
	266	 1	 0.00	 0.00	 0.0	 0.0	 1	    1.06639	  -11.27134	 225.0	 1	    1.08889	    0.88889;
	267	 1	 0.00	 0.00	 0.0	 0.0	 1	    1.06667	   -8.90714	 380.0	 1	    1.10526	    1.01316;
	268	 1	 0.00	 0.00	 0.0	 0.0	 1	    1.02059	  -18.59503	 63.0	 1	    1.04762	    0.95238;
	269	 1	 22.99	 2.00	 0.0	 -80.0	 1	    1.06564	  -13.28301	 225.0	 1	    1.08889	    1.00444;
	270	 1	 56.80	 1.70	 0.0	 0.0	 1	    1.05920	  -16.53547	 225.0	 1	    1.08889	    1.00444;
	271	 1	 12.88	 10.50	 0.0	 0.0	 1	    1.01742	  -11.25032	 63.0	 1	    1.07937	    0.92063;
	272	 1	 18.50	 -1.30	 0.0	 0.0	 1	    1.01934	   -9.42540	 63.0	 1	    1.07937	    0.92063;
	273	 1	 0.00	 0.00	 0.0	 0.0	 1	    1.06906	   -6.80739	 225.0	 1	    1.08889	    0.97778;
	274	 1	 0.00	 0.00	 0.0	 0.0	 1	    1.06894	   -6.85802	 225.0	 1	    1.08889	    0.97778;
	275	 1	 12.03	 6.00	 0.0	 0.0	 1	    1.04759	   -9.15146	 63.0	 1	    1.06349	    0.96825;
	276	 1	 59.81	 0.70	 0.0	 0.0	 1	    1.06621	   -7.40898	 225.0	 1	    1.08444	    1.00889;
	277	 1	 43.93	 1.20	 0.0	 0.0	 1	    1.08695	  -15.36655	 90.0	 1	    1.10000	    0.94444;
	278	 1	 0.00	 0.00	 0.0	 0.0	 1	    1.08662	   -5.57718	 225.0	 1	    1.08668	    1.00444;
	279	 1	 0.00	 0.00	 0.0	 0.0	 1	    1.08874	   -0.43528	 380.0	 1	    1.10263	    1.04211;
	280	 1	 4.69	 3.20	 0.0	 0.0	 1	    1.04424	   -8.30423	 90.0	 1	    1.06667	    0.97778;
	281	 1	 0.60	 3.10	 0.0	 0.0	 1	    1.08646	   -5.62851	 225.0	 1	    1.08655	    1.00444;
	282	 1	 15.90	 -1.20	 0.0	 0.0	 1	    1.01367	  -30.22883	 63.0	 1	    1.06349	    0.93651;
	283	 1	 43.93	 4.50	 0.0	 0.0	 1	    1.06696	  -14.58670	 90.0	 1	    1.07778	    0.97778;
	284	 1	 10.80	 0.00	 0.0	 0.0	 1	    1.05001	   -9.58575	 63.0	 1	    1.07937	    0.95238;
	285	 2	 0.00	 0.00	 0.0	 0.0	 1	    1.00821	  -14.94716	 63.0	 1	    1.06349	    0.93651;
	286	 1	 6.20	 -1.40	 0.0	 0.0	 1	    1.03701	  -13.44238	 90.0	 1	    1.06667	    0.97778;
	287	 1	 14.92	 2.70	 0.0	 0.0	 1	    1.03154	   -6.92409	 63.0	 1	    1.07937	    0.95238;
	288	 1	 0.48	 3.80	 0.0	 0.0	 1	    1.05693	  -15.44618	 225.0	 1	    1.08889	    1.00444;
	289	 1	 13.96	 2.30	 0.0	 0.0	 1	    1.05690	  -15.45409	 225.0	 1	    1.08889	    1.00444;
	290	 1	 19.90	 -7.80	 0.0	 0.0	 1	    1.06072	  -11.59786	 90.0	 1	    1.06667	    0.97778;
	291	 1	 26.80	 -4.50	 0.0	 0.0	 1	    1.04839	   -8.84811	 90.0	 1	    1.06667	    0.97778;
	292	 1	 48.14	 5.80	 0.0	 0.0	 1	    1.05697	   -8.36329	 225.0	 1	    1.08889	    0.88889;
	293	 1	 7.94	 4.20	 0.0	 0.0	 1	    1.08215	  -13.81198	 90.0	 1	    1.11111	    0.95556;
	294	 1	 13.10	 -5.40	 0.0	 0.0	 1	    1.02999	  -14.69377	 63.0	 1	    1.07937	    0.92063;
	295	 1	 1.20	 0.40	 0.0	 0.0	 1	    1.02317	  -14.99976	 63.0	 1	    1.06349	    0.93651;
	296	 1	 47.05	 2.90	 0.0	 0.0	 1	    1.02323	  -14.99550	 63.0	 1	    1.06349	    0.93651;
	297	 1	 0.00	 -0.90	 0.0	 0.0	 1	    1.03015	  -16.94594	 63.0	 1	    1.07937	    0.95238;
	298	 1	 20.22	 3.30	 0.0	 0.0	 1	    1.06931	  -10.35700	 225.0	 1	    1.08889	    0.88889;
	299	 1	 4.90	 -1.70	 0.0	 0.0	 1	    1.04168	  -16.53600	 63.0	 1	    1.07937	    0.95238;
	300	 1	 2.00	 -0.50	 0.0	 0.0	 1	    1.00605	  -18.89387	 63.0	 1	    1.06349	    0.93651;
	301	 1	 14.90	 -0.00	 0.0	 0.0	 1	    1.01895	  -12.23772	 63.0	 1	    1.06349	    0.93651;
	302	 1	 8.42	 3.10	 0.0	 0.0	 1	    1.08074	   -5.19923	 90.0	 1	    1.11111	    0.95556;
	303	 1	 65.59	 16.20	 0.0	 0.0	 1	    1.08309	   -4.32697	 225.0	 1	    1.08889	    0.88889;
	304	 1	 3.61	 0.40	 0.0	 0.0	 1	    1.04030	   -7.05983	 63.0	 1	    1.06349	    0.96825;
	305	 1	 11.79	 1.60	 0.0	 0.0	 1	    1.04092	  -11.79865	 63.0	 1	    1.06349	    0.93651;
	306	 1	 37.07	 3.70	 0.0	 0.0	 1	    1.04655	  -23.92811	 63.0	 1	    1.07937	    0.92063;
	307	 1	 26.60	 -5.10	 0.0	 0.0	 1	    1.03694	  -18.07915	 63.0	 1	    1.06349	    0.96825;
	308	 2	 0.00	 0.00	 0.0	 0.0	 1	    1.06002	  -14.26884	 63.0	 1	    1.06349	    0.93651;
	309	 1	 13.20	 -0.60	 0.0	 0.0	 1	    1.04194	   -9.43227	 63.0	 1	    1.07937	    0.95238;
	310	 1	 16.30	 -5.40	 0.0	 0.0	 1	    1.01951	  -18.54328	 90.0	 1	    1.06667	    0.97778;
	311	 1	 0.72	 0.20	 0.0	 0.0	 1	    1.03430	  -19.03305	 63.0	 1	    1.07937	    0.92063;
	312	 1	 8.42	 2.50	 0.0	 0.0	 1	    1.03250	  -21.05660	 63.0	 1	    1.06349	    0.96825;
	313	 1	 13.24	 3.50	 0.0	 0.0	 1	    1.03284	  -21.07924	 63.0	 1	    1.06349	    0.96825;
	314	 1	 0.60	 0.80	 0.0	 0.0	 1	    1.02144	  -12.36282	 90.0	 1	    1.06667	    0.97778;
	315	 1	 16.13	 3.10	 0.0	 0.0	 1	    1.05157	   -3.11421	 90.0	 1	    1.07778	    0.92222;
	316	 1	 23.70	 -0.80	 0.0	 0.0	 1	    1.04261	   -6.09549	 63.0	 1	    1.07937	    0.92063;
	317	 1	 0.00	 0.00	 0.0	 0.0	 1	    1.07165	   -2.90962	 225.0	 1	    1.08889	    1.00000;
	318	 1	 17.10	 -2.30	 0.0	 0.0	 1	    1.06672	  -11.84552	 90.0	 1	    1.07778	    0.97778;