%%%%%%%%%%%%%%%%%%%%%%%%%%%%%%%%%%%%%%%%%%%%%%%%%%%%%%%%%%%%%%%%%%%%%%%%%%%
%%%%                                                                  %%%%%
%%%%    IEEE PES Power Grid Library - Optimal Power Flow - v17.07     %%%%%
%%%%          (https://github.com/power-grid-lib/pglib-opf)           %%%%%
%%%%             Benchmark Group - Active Power Increase              %%%%%
%%%%                         27 - June - 2017                         %%%%%
%%%%                                                                  %%%%%
%%%%%%%%%%%%%%%%%%%%%%%%%%%%%%%%%%%%%%%%%%%%%%%%%%%%%%%%%%%%%%%%%%%%%%%%%%%
function mpc = pglib_opf_case39_epri__api
mpc.version = '2';
mpc.baseMVA = 100.0;

%% bus data
%	bus_i	type	Pd	Qd	Gs	Bs	area	Vm	Va	baseKV	zone	Vmax	Vmin
mpc.bus = [
	1	 1	 160.92	 44.20	 0.0	 0.0	 2	    1.05856	  -25.87269	 345.0	 1	    1.06000	    0.94000;
	2	 1	 0.00	 0.00	 0.0	 0.0	 2	    1.04546	  -25.91838	 345.0	 1	    1.06000	    0.94000;
	3	 1	 530.89	 2.40	 0.0	 0.0	 2	    1.02521	  -29.79601	 345.0	 1	    1.06000	    0.94000;
	4	 1	 824.36	 184.00	 0.0	 0.0	 1	    1.00578	  -28.49136	 345.0	 1	    1.06000	    0.94000;
	5	 1	 0.00	 0.00	 0.0	 0.0	 1	    1.01461	  -24.23480	 345.0	 1	    1.06000	    0.94000;
	6	 1	 0.00	 0.00	 0.0	 0.0	 1	    1.01921	  -22.73474	 345.0	 1	    1.06000	    0.94000;
	7	 1	 385.47	 84.00	 0.0	 0.0	 1	    1.00758	  -26.26145	 345.0	 1	    1.06000	    0.94000;
	8	 1	 860.63	 176.60	 0.0	 0.0	 1	    1.00706	  -27.05706	 345.0	 1	    1.06000	    0.94000;
	9	 1	 6.50	 -66.60	 0.0	 0.0	 1	    1.06000	  -25.18435	 345.0	 1	    1.06000	    0.94000;
	10	 1	 0.00	 0.00	 0.0	 0.0	 1	    1.03602	  -21.50823	 345.0	 1	    1.06000	    0.94000;
	11	 1	 0.00	 0.00	 0.0	 0.0	 1	    1.02915	  -21.95804	 345.0	 1	    1.06000	    0.94000;
	12	 1	 14.06	 88.00	 0.0	 0.0	 1	    1.01573	  -22.52435	 345.0	 1	    1.06000	    0.94000;
	13	 1	 0.00	 0.00	 0.0	 0.0	 1	    1.02839	  -22.83127	 345.0	 1	    1.06000	    0.94000;
	14	 1	 0.00	 0.00	 0.0	 0.0	 1	    1.01600	  -26.08158	 345.0	 1	    1.06000	    0.94000;
	15	 1	 527.59	 153.00	 0.0	 0.0	 3	    1.00789	  -29.14650	 345.0	 1	    1.06000	    0.94000;
	16	 1	 542.43	 32.30	 0.0	 0.0	 3	    1.02144	  -27.76856	 345.0	 1	    1.06000	    0.94000;
	17	 1	 0.00	 0.00	 0.0	 0.0	 2	    1.02453	  -29.32582	 345.0	 1	    1.06000	    0.94000;
	18	 1	 260.50	 30.00	 0.0	 0.0	 2	    1.02302	  -30.22468	 345.0	 1	    1.06000	    0.94000;
	19	 1	 0.00	 0.00	 0.0	 0.0	 3	    1.05498	  -21.86327	 345.0	 1	    1.06000	    0.94000;
	20	 1	 1121.13	 103.00	 0.0	 0.0	 3	    0.99042	  -23.91970	 345.0	 1	    1.06000	    0.94000;
	21	 1	 451.75	 115.00	 0.0	 0.0	 3	    1.01345	  -24.75163	 345.0	 1	    1.06000	    0.94000;
	22	 1	 0.00	 0.00	 0.0	 0.0	 3	    1.02907	  -18.19892	 345.0	 1	    1.06000	    0.94000;
	23	 1	 408.06	 84.60	 0.0	 0.0	 3	    1.02491	  -18.23470	 345.0	 1	    1.06000	    0.94000;
	24	 1	 308.60	 -92.20	 0.0	 0.0	 3	    1.02468	  -27.26547	 345.0	 1	    1.06000	    0.94000;
	25	 1	 369.31	 47.20	 0.0	 0.0	 2	    1.05458	  -24.08718	 345.0	 1	    1.06000	    0.94000;
	26	 1	 229.17	 17.00	 0.0	 0.0	 2	    1.04763	  -27.75109	 345.0	 1	    1.06000	    0.94000;
	27	 1	 463.29	 75.50	 0.0	 0.0	 2	    1.02956	  -30.42018	 345.0	 1	    1.06000	    0.94000;
	28	 1	 339.64	 27.60	 0.0	 0.0	 3	    1.05460	  -24.28240	 345.0	 1	    1.06000	    0.94000;
	29	 1	 467.41	 26.90	 0.0	 0.0	 3	    1.06000	  -20.53854	 345.0	 1	    1.06000	    0.94000;
	30	 2	 0.00	 0.00	 0.0	 0.0	 2	    1.04871	  -24.10067	 345.0	 1	    1.06000	    0.94000;
	31	 3	 15.17	 4.60	 0.0	 0.0	 1	    1.06000	   -0.00000	 345.0	 1	    1.06000	    0.94000;
	32	 2	 0.00	 0.00	 0.0	 0.0	 1	    1.03808	  -12.42850	 345.0	 1	    1.06000	    0.94000;
	33	 2	 0.00	 0.00	 0.0	 0.0	 3	    1.02381	  -15.14942	 345.0	 1	    1.06000	    0.94000;
	34	 2	 0.00	 0.00	 0.0	 0.0	 3	    1.01754	  -15.00735	 345.0	 1	    1.06000	    0.94000;
	35	 2	 0.00	 0.00	 0.0	 0.0	 3	    1.03063	  -11.32312	 345.0	 1	    1.06000	    0.94000;
	36	 2	 0.00	 0.00	 0.0	 0.0	 3	    1.06000	   -5.65971	 345.0	 1	    1.06000	    0.94000;
	37	 2	 0.00	 0.00	 0.0	 0.0	 2	    1.02885	  -12.76323	 345.0	 1	    1.06000	    0.94000;
	38	 2	 0.00	 0.00	 0.0	 0.0	 3	    1.05505	  -10.84927	 345.0	 1	    1.06000	    0.94000;
	39	 2	 1820.19	 250.00	 0.0	 0.0	 1	    1.05999	  -23.75246	 345.0	 1	    1.06000	    0.94000;
];

%% generator data
%	bus	Pg	Qg	Qmax	Qmin	Vg	mBase	status	Pmax	Pmin	Pc1	Pc2	Qc1min	Qc1max	Qc2min	Qc2max	ramp_agc	ramp_10	ramp_30	ramp_q	apf
mpc.gen = [
	30	 187.451	 169.52	 400.0	 -283.2	 1.04871	 100.0	 1	 318	 0.0	 0.0	 0.0	 0.0	 0.0	 0.0	 0.0	 0.0	 0.0	 0.0	 0.0	 0.0; % COW
	31	 1576.0	 774.061	 853.2	 -853.2	 1.06	 100.0	 1	 1576	 0.0	 0.0	 0.0	 0.0	 0.0	 0.0	 0.0	 0.0	 0.0	 0.0	 0.0	 0.0; % COW
	32	 793.08	 425.469	 1278.0	 -1278.0	 1.03808	 100.0	 1	 2555	 0.0	 0.0	 0.0	 0.0	 0.0	 0.0	 0.0	 0.0	 0.0	 0.0	 0.0	 0.0; % COW
	33	 844.883	 279.935	 433.0	 -433.0	 1.02381	 100.0	 1	 865	 0.0	 0.0	 0.0	 0.0	 0.0	 0.0	 0.0	 0.0	 0.0	 0.0	 0.0	 0.0; % COW
	34	 870.985	 226.682	 439.0	 -439.0	 1.01754	 100.0	 1	 877	 0.0	 0.0	 0.0	 0.0	 0.0	 0.0	 0.0	 0.0	 0.0	 0.0	 0.0	 0.0; % COW
	35	 866.249	 244.156	 560.0	 -560.0	 1.03063	 100.0	 1	 1120	 0.0	 0.0	 0.0	 0.0	 0.0	 0.0	 0.0	 0.0	 0.0	 0.0	 0.0	 0.0; % COW
	36	 873.573	 216.496	 461.0	 -461.0	 1.06	 100.0	 1	 922	 0.0	 0.0	 0.0	 0.0	 0.0	 0.0	 0.0	 0.0	 0.0	 0.0	 0.0	 0.0; % COW
	37	 897.605	 65.609	 759.0	 -759.0	 1.02885	 100.0	 1	 1518	 0.0	 0.0	 0.0	 0.0	 0.0	 0.0	 0.0	 0.0	 0.0	 0.0	 0.0	 0.0; % COW
	38	 1186.379	 180.289	 595.0	 -595.0	 1.05505	 100.0	 1	 1189	 0.0	 0.0	 0.0	 0.0	 0.0	 0.0	 0.0	 0.0	 0.0	 0.0	 0.0	 0.0; % COW
	39	 2098.522	 139.816	 1263.0	 -1263.0	 1.05999	 100.0	 1	 2526	 0.0	 0.0	 0.0	 0.0	 0.0	 0.0	 0.0	 0.0	 0.0	 0.0	 0.0	 0.0; % COW
];

%% generator cost data
%	2	startup	shutdown	n	c(n-1)	...	c0
mpc.gencost = [
	2	 0.0	 0.0	 3	   0.000000	   0.748692	   0.000000; % COW
	2	 0.0	 0.0	 3	   0.000000	   0.856541	   0.000000; % COW
	2	 0.0	 0.0	 3	   0.000000	   0.627548	   0.000000; % COW
	2	 0.0	 0.0	 3	   0.000000	   0.800988	   0.000000; % COW
	2	 0.0	 0.0	 3	   0.000000	   0.790036	   0.000000; % COW
	2	 0.0	 0.0	 3	   0.000000	   0.649106	   0.000000; % COW
	2	 0.0	 0.0	 3	   0.000000	   0.517689	   0.000000; % COW
	2	 0.0	 0.0	 3	   0.000000	   0.508744	   0.000000; % COW
	2	 0.0	 0.0	 3	   0.000000	   0.702879	   0.000000; % COW
	2	 0.0	 0.0	 3	   0.000000	   1.067544	   0.000000; % COW
];

%% branch data
%	fbus	tbus	r	x	b	rateA	rateB	rateC	ratio	angle	status	angmin	angmax
mpc.branch = [
	1	 2	 0.0035	 0.0411	 0.6987	 600.0	 600.0	 600.0	 0.0	 0.0	 1	 -30.0	 30.0;
	1	 39	 0.001	 0.025	 0.75	 1000.0	 1000.0	 1000.0	 0.0	 0.0	 1	 -30.0	 30.0;
	2	 3	 0.0013	 0.0151	 0.2572	 500.0	 500.0	 500.0	 0.0	 0.0	 1	 -30.0	 30.0;
	2	 25	 0.007	 0.0086	 0.146	 500.0	 500.0	 500.0	 0.0	 0.0	 1	 -30.0	 30.0;
	2	 30	 0.0	 0.0181	 0.0	 900.0	 900.0	 2500.0	 1.025	 0.0	 1	 -30.0	 30.0;
	3	 4	 0.0013	 0.0213	 0.2214	 500.0	 500.0	 500.0	 0.0	 0.0	 1	 -30.0	 30.0;
	3	 18	 0.0011	 0.0133	 0.2138	 500.0	 500.0	 500.0	 0.0	 0.0	 1	 -30.0	 30.0;
	4	 5	 0.0008	 0.0128	 0.1342	 600.0	 600.0	 600.0	 0.0	 0.0	 1	 -30.0	 30.0;
	4	 14	 0.0008	 0.0129	 0.1382	 500.0	 500.0	 500.0	 0.0	 0.0	 1	 -30.0	 30.0;
	5	 6	 0.0002	 0.0026	 0.0434	 1200.0	 1200.0	 1200.0	 0.0	 0.0	 1	 -30.0	 30.0;
	5	 8	 0.0008	 0.0112	 0.1476	 900.0	 900.0	 900.0	 0.0	 0.0	 1	 -30.0	 30.0;
	6	 7	 0.0006	 0.0092	 0.113	 900.0	 900.0	 900.0	 0.0	 0.0	 1	 -30.0	 30.0;
	6	 11	 0.0007	 0.0082	 0.1389	 480.0	 480.0	 480.0	 0.0	 0.0	 1	 -30.0	 30.0;
	6	 31	 0.0	 0.025	 0.0	 1800.0	 1800.0	 1800.0	 1.07	 0.0	 1	 -30.0	 30.0;
	7	 8	 0.0004	 0.0046	 0.078	 900.0	 900.0	 900.0	 0.0	 0.0	 1	 -30.0	 30.0;
	8	 9	 0.0023	 0.0363	 0.3804	 900.0	 900.0	 900.0	 0.0	 0.0	 1	 -30.0	 30.0;
	9	 39	 0.001	 0.025	 1.2	 900.0	 900.0	 900.0	 0.0	 0.0	 1	 -30.0	 30.0;
	10	 11	 0.0004	 0.0043	 0.0729	 600.0	 600.0	 600.0	 0.0	 0.0	 1	 -30.0	 30.0;
	10	 13	 0.0004	 0.0043	 0.0729	 600.0	 600.0	 600.0	 0.0	 0.0	 1	 -30.0	 30.0;
	10	 32	 0.0	 0.02	 0.0	 900.0	 900.0	 2500.0	 1.07	 0.0	 1	 -30.0	 30.0;
	12	 11	 0.0016	 0.0435	 0.0	 500.0	 500.0	 500.0	 1.006	 0.0	 1	 -30.0	 30.0;
	12	 13	 0.0016	 0.0435	 0.0	 500.0	 500.0	 500.0	 1.006	 0.0	 1	 -30.0	 30.0;
	13	 14	 0.0009	 0.0101	 0.1723	 600.0	 600.0	 600.0	 0.0	 0.0	 1	 -30.0	 30.0;
	14	 15	 0.0018	 0.0217	 0.366	 600.0	 600.0	 600.0	 0.0	 0.0	 1	 -30.0	 30.0;
	15	 16	 0.0009	 0.0094	 0.171	 600.0	 600.0	 600.0	 0.0	 0.0	 1	 -30.0	 30.0;
	16	 17	 0.0007	 0.0089	 0.1342	 600.0	 600.0	 600.0	 0.0	 0.0	 1	 -30.0	 30.0;
	16	 19	 0.0016	 0.0195	 0.304	 600.0	 600.0	 2500.0	 0.0	 0.0	 1	 -30.0	 30.0;
	16	 21	 0.0008	 0.0135	 0.2548	 600.0	 600.0	 600.0	 0.0	 0.0	 1	 -30.0	 30.0;
	16	 24	 0.0003	 0.0059	 0.068	 600.0	 600.0	 600.0	 0.0	 0.0	 1	 -30.0	 30.0;
	17	 18	 0.0007	 0.0082	 0.1319	 600.0	 600.0	 600.0	 0.0	 0.0	 1	 -30.0	 30.0;
	17	 27	 0.0013	 0.0173	 0.3216	 600.0	 600.0	 600.0	 0.0	 0.0	 1	 -30.0	 30.0;
	19	 20	 0.0007	 0.0138	 0.0	 900.0	 900.0	 2500.0	 1.06	 0.0	 1	 -30.0	 30.0;
	19	 33	 0.0007	 0.0142	 0.0	 900.0	 900.0	 2500.0	 1.07	 0.0	 1	 -30.0	 30.0;
	20	 34	 0.0009	 0.018	 0.0	 900.0	 900.0	 2500.0	 1.009	 0.0	 1	 -30.0	 30.0;
	21	 22	 0.0008	 0.014	 0.2565	 900.0	 900.0	 900.0	 0.0	 0.0	 1	 -30.0	 30.0;
	22	 23	 0.0006	 0.0096	 0.1846	 600.0	 600.0	 600.0	 0.0	 0.0	 1	 -30.0	 30.0;
	22	 35	 0.0	 0.0143	 0.0	 900.0	 900.0	 2500.0	 1.025	 0.0	 1	 -30.0	 30.0;
	23	 24	 0.0022	 0.035	 0.361	 600.0	 600.0	 600.0	 0.0	 0.0	 1	 -30.0	 30.0;
	23	 36	 0.0005	 0.0272	 0.0	 900.0	 900.0	 2500.0	 1.0	 0.0	 1	 -30.0	 30.0;
	25	 26	 0.0032	 0.0323	 0.531	 600.0	 600.0	 600.0	 0.0	 0.0	 1	 -30.0	 30.0;
	25	 37	 0.0006	 0.0232	 0.0	 900.0	 900.0	 2500.0	 1.025	 0.0	 1	 -30.0	 30.0;
	26	 27	 0.0014	 0.0147	 0.2396	 600.0	 600.0	 600.0	 0.0	 0.0	 1	 -30.0	 30.0;
	26	 28	 0.0043	 0.0474	 0.7802	 600.0	 600.0	 600.0	 0.0	 0.0	 1	 -30.0	 30.0;
	26	 29	 0.0057	 0.0625	 1.029	 600.0	 600.0	 600.0	 0.0	 0.0	 1	 -30.0	 30.0;
	28	 29	 0.0014	 0.0151	 0.249	 600.0	 600.0	 600.0	 0.0	 0.0	 1	 -30.0	 30.0;
	29	 38	 0.0008	 0.0156	 0.0	 1200.0	 1200.0	 2500.0	 1.025	 0.0	 1	 -30.0	 30.0;
];

% INFO    : === Translation Options ===
% INFO    : Load Model:                  from file ./pglib_opf_case39_epri.m.api.sol
% INFO    : Gen Active Capacity Model:   stat
% INFO    : Gen Reactive Capacity Model: al50ag
% INFO    : Gen Active Cost Model:       stat
% INFO    : 
% INFO    : === Load Replacement Notes ===
% INFO    : Bus 1	: Pd=97.6, Qd=44.2 -> Pd=160.92, Qd=44.20
% INFO    : Bus 2	: Pd=0.0, Qd=0.0 -> Pd=0.00, Qd=0.00
% INFO    : Bus 3	: Pd=322.0, Qd=2.4 -> Pd=530.89, Qd=2.40
% INFO    : Bus 4	: Pd=500.0, Qd=184.0 -> Pd=824.36, Qd=184.00
% INFO    : Bus 5	: Pd=0.0, Qd=0.0 -> Pd=0.00, Qd=0.00
% INFO    : Bus 6	: Pd=0.0, Qd=0.0 -> Pd=0.00, Qd=0.00
% INFO    : Bus 7	: Pd=233.8, Qd=84.0 -> Pd=385.47, Qd=84.00
% INFO    : Bus 8	: Pd=522.0, Qd=176.6 -> Pd=860.63, Qd=176.60
% INFO    : Bus 9	: Pd=6.5, Qd=-66.6 -> Pd=6.50, Qd=-66.60
% INFO    : Bus 10	: Pd=0.0, Qd=0.0 -> Pd=0.00, Qd=0.00
% INFO    : Bus 11	: Pd=0.0, Qd=0.0 -> Pd=0.00, Qd=0.00
% INFO    : Bus 12	: Pd=8.53, Qd=88.0 -> Pd=14.06, Qd=88.00
% INFO    : Bus 13	: Pd=0.0, Qd=0.0 -> Pd=0.00, Qd=0.00
% INFO    : Bus 14	: Pd=0.0, Qd=0.0 -> Pd=0.00, Qd=0.00
% INFO    : Bus 15	: Pd=320.0, Qd=153.0 -> Pd=527.59, Qd=153.00
% INFO    : Bus 16	: Pd=329.0, Qd=32.3 -> Pd=542.43, Qd=32.30
% INFO    : Bus 17	: Pd=0.0, Qd=0.0 -> Pd=0.00, Qd=0.00
% INFO    : Bus 18	: Pd=158.0, Qd=30.0 -> Pd=260.50, Qd=30.00
% INFO    : Bus 19	: Pd=0.0, Qd=0.0 -> Pd=0.00, Qd=0.00
% INFO    : Bus 20	: Pd=680.0, Qd=103.0 -> Pd=1121.13, Qd=103.00
% INFO    : Bus 21	: Pd=274.0, Qd=115.0 -> Pd=451.75, Qd=115.00
% INFO    : Bus 22	: Pd=0.0, Qd=0.0 -> Pd=0.00, Qd=0.00
% INFO    : Bus 23	: Pd=247.5, Qd=84.6 -> Pd=408.06, Qd=84.60
% INFO    : Bus 24	: Pd=308.6, Qd=-92.2 -> Pd=308.60, Qd=-92.20
% INFO    : Bus 25	: Pd=224.0, Qd=47.2 -> Pd=369.31, Qd=47.20
% INFO    : Bus 26	: Pd=139.0, Qd=17.0 -> Pd=229.17, Qd=17.00
% INFO    : Bus 27	: Pd=281.0, Qd=75.5 -> Pd=463.29, Qd=75.50
% INFO    : Bus 28	: Pd=206.0, Qd=27.6 -> Pd=339.64, Qd=27.60
% INFO    : Bus 29	: Pd=283.5, Qd=26.9 -> Pd=467.41, Qd=26.90
% INFO    : Bus 30	: Pd=0.0, Qd=0.0 -> Pd=0.00, Qd=0.00
% INFO    : Bus 31	: Pd=9.2, Qd=4.6 -> Pd=15.17, Qd=4.60
% INFO    : Bus 32	: Pd=0.0, Qd=0.0 -> Pd=0.00, Qd=0.00
% INFO    : Bus 33	: Pd=0.0, Qd=0.0 -> Pd=0.00, Qd=0.00
% INFO    : Bus 34	: Pd=0.0, Qd=0.0 -> Pd=0.00, Qd=0.00
% INFO    : Bus 35	: Pd=0.0, Qd=0.0 -> Pd=0.00, Qd=0.00
% INFO    : Bus 36	: Pd=0.0, Qd=0.0 -> Pd=0.00, Qd=0.00
% INFO    : Bus 37	: Pd=0.0, Qd=0.0 -> Pd=0.00, Qd=0.00
% INFO    : Bus 38	: Pd=0.0, Qd=0.0 -> Pd=0.00, Qd=0.00
% INFO    : Bus 39	: Pd=1104.0, Qd=250.0 -> Pd=1820.19, Qd=250.00
% INFO    : 
% INFO    : === Generator Setpoint Replacement Notes ===
% INFO    : Gen at bus 30	: Pg=889.044, Qg=140.0 -> Pg=88.0, Qg=236.0
% INFO    : Gen at bus 31	: Pg=646.0, Qg=300.0 -> Pg=1453.0, Qg=711.0
% INFO    : Gen at bus 32	: Pg=725.0, Qg=300.0 -> Pg=805.0, Qg=401.0
% INFO    : Gen at bus 33	: Pg=252.264, Qg=67.541 -> Pg=858.0, Qg=253.0
% INFO    : Gen at bus 34	: Pg=508.0, Qg=141.604 -> Pg=859.0, Qg=250.0
% INFO    : Gen at bus 35	: Pg=687.0, Qg=223.333 -> Pg=864.0, Qg=249.0
% INFO    : Gen at bus 36	: Pg=580.0, Qg=59.48 -> Pg=874.0, Qg=215.0
% INFO    : Gen at bus 37	: Pg=40.24, Qg=0.0 -> Pg=887.0, Qg=3.0
% INFO    : Gen at bus 38	: Pg=865.0, Qg=47.025 -> Pg=1185.0, Qg=187.0
% INFO    : Gen at bus 39	: Pg=1100.0, Qg=-19.25 -> Pg=2329.0, Qg=143.0
% INFO    : 
% INFO    : === Generator Reactive Capacity Atleast Setpoint Value Notes ===
% INFO    : Gen at bus 30	: Qg 236.0, Qmin 140.0, Qmax 400.0 -> Qmin -283.2, Qmax 400.0
% INFO    : Gen at bus 31	: Qg 711.0, Qmin -100.0, Qmax 300.0 -> Qmin -853.2, Qmax 853.2
% INFO    : Gen at bus 32	: Qg 401.0, Qmin 150.0, Qmax 300.0 -> Qmin -481.2, Qmax 481.2
% INFO    : Gen at bus 33	: Qg 253.0, Qmin 0.0, Qmax 250.0 -> Qmin -303.6, Qmax 303.6
% INFO    : Gen at bus 34	: Qg 250.0, Qmin 0.0, Qmax 167.0 -> Qmin -300.0, Qmax 300.0
% INFO    : Gen at bus 35	: Qg 249.0, Qmin -100.0, Qmax 300.0 -> Qmin -298.8, Qmax 300.0
% INFO    : Gen at bus 36	: Qg 215.0, Qmin 0.0, Qmax 240.0 -> Qmin -258.0, Qmax 240.0
% INFO    : Gen at bus 37	: Qg 3.0, Qmin 0.0, Qmax 250.0 -> Qmin -3.6, Qmax 250.0
% INFO    : Gen at bus 38	: Qg 187.0, Qmin -150.0, Qmax 300.0 -> Qmin -224.4, Qmax 300.0
% INFO    : Gen at bus 39	: Qg 143.0, Qmin -100.0, Qmax 300.0 -> Qmin -171.6, Qmax 300.0
% INFO    : 
% INFO    : === Generator Classification Notes ===
% INFO    : COW    10  -   100.00
% INFO    : 
% INFO    : === Generator Active Capacity Stat Model Notes ===
% INFO    : Gen at bus 30 - COW	: Pg=88.0, Pmax=1040.0 -> Pmax=318   samples: 2
% WARNING : Failed to find a generator capacity within (1453.0-7265.0) after 100 samples, using percent increase model
% INFO    : Gen at bus 31 - COW	: Pg=1453.0, Pmax=646.0 -> Pmax=1576   samples: 100
% INFO    : Gen at bus 32 - COW	: Pg=805.0, Pmax=725.0 -> Pmax=2555   samples: 26
% INFO    : Gen at bus 33 - COW	: Pg=858.0, Pmax=652.0 -> Pmax=865   samples: 44
% INFO    : Gen at bus 34 - COW	: Pg=859.0, Pmax=508.0 -> Pmax=877   samples: 33
% INFO    : Gen at bus 35 - COW	: Pg=864.0, Pmax=687.0 -> Pmax=1120   samples: 15
% INFO    : Gen at bus 36 - COW	: Pg=874.0, Pmax=580.0 -> Pmax=922   samples: 12
% INFO    : Gen at bus 37 - COW	: Pg=887.0, Pmax=564.0 -> Pmax=1518   samples: 39
% INFO    : Gen at bus 38 - COW	: Pg=1185.0, Pmax=865.0 -> Pmax=1189   samples: 57
% WARNING : Failed to find a generator capacity within (2329.0-11645.0) after 100 samples, using percent increase model
% INFO    : Gen at bus 39 - COW	: Pg=2329.0, Pmax=1100.0 -> Pmax=2526   samples: 100
% INFO    : 
% INFO    : === Generator Active Capacity LB Model Notes ===
% INFO    : 
% INFO    : === Generator Reactive Capacity Atleast Max 50 Percent Active Model Notes ===
% INFO    : Gen at bus 32 - COW	: Pmax 2555.0, Qmin -481.2, Qmax 481.2 -> Qmin -1278.0, Qmax 1278.0
% INFO    : Gen at bus 33 - COW	: Pmax 865.0, Qmin -303.6, Qmax 303.6 -> Qmin -433.0, Qmax 433.0
% INFO    : Gen at bus 34 - COW	: Pmax 877.0, Qmin -300.0, Qmax 300.0 -> Qmin -439.0, Qmax 439.0
% INFO    : Gen at bus 35 - COW	: Pmax 1120.0, Qmin -298.8, Qmax 300.0 -> Qmin -560.0, Qmax 560.0
% INFO    : Gen at bus 36 - COW	: Pmax 922.0, Qmin -258.0, Qmax 240.0 -> Qmin -461.0, Qmax 461.0
% INFO    : Gen at bus 37 - COW	: Pmax 1518.0, Qmin -3.6, Qmax 250.0 -> Qmin -759.0, Qmax 759.0
% INFO    : Gen at bus 38 - COW	: Pmax 1189.0, Qmin -224.4, Qmax 300.0 -> Qmin -595.0, Qmax 595.0
% INFO    : Gen at bus 39 - COW	: Pmax 2526.0, Qmin -171.6, Qmax 300.0 -> Qmin -1263.0, Qmax 1263.0
% INFO    : 
% INFO    : === Generator Active Cost Stat Model Notes ===
% INFO    : Updated Generator Cost: COW - 0.0 0.196216 0.0 -> 0 0.748691878176 0
% INFO    : Updated Generator Cost: COW - 0.0 0.462527 0.0 -> 0 0.856540688013 0
% INFO    : Updated Generator Cost: COW - 0.0 0.768689 0.0 -> 0 0.627548032466 0
% INFO    : Updated Generator Cost: COW - 0.0 1.073117 0.0 -> 0 0.800988142076 0
% INFO    : Updated Generator Cost: COW - 0.0 0.764088 0.0 -> 0 0.790036388518 0
% INFO    : Updated Generator Cost: COW - 0.0 0.996155 0.0 -> 0 0.649105992615 0
% INFO    : Updated Generator Cost: COW - 0.0 0.567133 0.0 -> 0 0.517688833386 0
% INFO    : Updated Generator Cost: COW - 0.0 0.973223 0.0 -> 0 0.508744102757 0
% INFO    : Updated Generator Cost: COW - 0.0 0.698902 0.0 -> 0 0.702879032102 0
% INFO    : Updated Generator Cost: COW - 0.0 0.848427 0.0 -> 0 1.0675442177 0
% INFO    : 
% INFO    : === Voltage Setpoint Replacement Notes ===
% INFO    : Bus 1	: V=1.04211, theta=-9.7881 -> V=1.05856, theta=-25.87269
% INFO    : Bus 2	: V=1.06, theta=-6.84043 -> V=1.04546, theta=-25.91838
% INFO    : Bus 3	: V=1.04843, theta=-10.68622 -> V=1.02521, theta=-29.79601
% INFO    : Bus 4	: V=1.03641, theta=-11.26062 -> V=1.00578, theta=-28.49136
% INFO    : Bus 5	: V=1.04455, theta=-9.70992 -> V=1.01461, theta=-24.2348
% INFO    : Bus 6	: V=1.04856, theta=-8.99559 -> V=1.01921, theta=-22.73474
% INFO    : Bus 7	: V=1.03625, theta=-11.01224 -> V=1.00758, theta=-26.26145
% INFO    : Bus 8	: V=1.03422, theta=-11.46959 -> V=1.00706, theta=-27.05706
% INFO    : Bus 9	: V=1.05124, theta=-10.90567 -> V=1.06, theta=-25.18435
% INFO    : Bus 10	: V=1.05953, theta=-6.93849 -> V=1.03602, theta=-21.50823
% INFO    : Bus 11	: V=1.05462, theta=-7.64693 -> V=1.02915, theta=-21.95804
% INFO    : Bus 12	: V=1.042, theta=-7.7785 -> V=1.01573, theta=-22.52435
% INFO    : Bus 13	: V=1.05403, theta=-7.78931 -> V=1.02839, theta=-22.83127
% INFO    : Bus 14	: V=1.04514, theta=-9.82586 -> V=1.016, theta=-26.08158
% INFO    : Bus 15	: V=1.03708, theta=-11.84353 -> V=1.00789, theta=-29.1465
% INFO    : Bus 16	: V=1.04777, theta=-11.18669 -> V=1.02144, theta=-27.76856
% INFO    : Bus 17	: V=1.04841, theta=-11.34745 -> V=1.02453, theta=-29.32582
% INFO    : Bus 18	: V=1.0472, theta=-11.51102 -> V=1.02302, theta=-30.22468
% INFO    : Bus 19	: V=1.06, theta=-10.46072 -> V=1.05498, theta=-21.86327
% INFO    : Bus 20	: V=0.99709, theta=-11.84005 -> V=0.99042, theta=-23.9197
% INFO    : Bus 21	: V=1.04477, theta=-8.59138 -> V=1.01345, theta=-24.75163
% INFO    : Bus 22	: V=1.05988, theta=-3.97844 -> V=1.02907, theta=-18.19892
% INFO    : Bus 23	: V=1.05254, theta=-4.17605 -> V=1.02491, theta=-18.2347
% INFO    : Bus 24	: V=1.05197, theta=-11.00002 -> V=1.02468, theta=-27.26547
% INFO    : Bus 25	: V=1.04575, theta=-8.03695 -> V=1.05458, theta=-24.08718
% INFO    : Bus 26	: V=1.05635, theta=-9.13483 -> V=1.04763, theta=-27.75109
% INFO    : Bus 27	: V=1.04686, theta=-11.29164 -> V=1.02956, theta=-30.42018
% INFO    : Bus 28	: V=1.0587, theta=-5.26316 -> V=1.0546, theta=-24.2824
% INFO    : Bus 29	: V=1.06, theta=-2.42411 -> V=1.06, theta=-20.53854
% INFO    : Bus 30	: V=1.04686, theta=1.70757 -> V=1.04871, theta=-24.10067
% INFO    : Bus 31	: V=1.03899, theta=-0.0 -> V=1.06, theta=-0.0
% INFO    : Bus 32	: V=1.03812, theta=1.17047 -> V=1.03808, theta=-12.4285
% INFO    : Bus 33	: V=1.00137, theta=-8.41864 -> V=1.02381, theta=-15.14942
% INFO    : Bus 34	: V=1.01383, theta=-6.67657 -> V=1.01754, theta=-15.00735
% INFO    : Bus 35	: V=1.06, theta=1.16387 -> V=1.03063, theta=-11.32312
% INFO    : Bus 36	: V=1.06, theta=3.93747 -> V=1.06, theta=-5.65971
% INFO    : Bus 37	: V=1.02044, theta=-7.52316 -> V=1.02885, theta=-12.76323
% INFO    : Bus 38	: V=1.03973, theta=4.76525 -> V=1.05505, theta=-10.84927
% INFO    : Bus 39	: V=1.02632, theta=-10.33157 -> V=1.05999, theta=-23.75246
% INFO    : 
% INFO    : === Generator Setpoint Replacement Notes ===
% INFO    : Gen at bus 30	: Pg=88.0, Qg=236.0 -> Pg=187.451, Qg=169.52
% INFO    : Gen at bus 30	: Vg=1.04686 -> Vg=1.04871
% INFO    : Gen at bus 31	: Pg=1453.0, Qg=711.0 -> Pg=1576.0, Qg=774.061
% INFO    : Gen at bus 31	: Vg=1.03899 -> Vg=1.06
% INFO    : Gen at bus 32	: Pg=805.0, Qg=401.0 -> Pg=793.08, Qg=425.469
% INFO    : Gen at bus 32	: Vg=1.03812 -> Vg=1.03808
% INFO    : Gen at bus 33	: Pg=858.0, Qg=253.0 -> Pg=844.883, Qg=279.935
% INFO    : Gen at bus 33	: Vg=1.00137 -> Vg=1.02381
% INFO    : Gen at bus 34	: Pg=859.0, Qg=250.0 -> Pg=870.985, Qg=226.682
% INFO    : Gen at bus 34	: Vg=1.01383 -> Vg=1.01754
% INFO    : Gen at bus 35	: Pg=864.0, Qg=249.0 -> Pg=866.249, Qg=244.156
% INFO    : Gen at bus 35	: Vg=1.06 -> Vg=1.03063
% INFO    : Gen at bus 36	: Pg=874.0, Qg=215.0 -> Pg=873.573, Qg=216.496
% INFO    : Gen at bus 36	: Vg=1.06 -> Vg=1.06
% INFO    : Gen at bus 37	: Pg=887.0, Qg=3.0 -> Pg=897.605, Qg=65.609
% INFO    : Gen at bus 37	: Vg=1.02044 -> Vg=1.02885
% INFO    : Gen at bus 38	: Pg=1185.0, Qg=187.0 -> Pg=1186.379, Qg=180.289
% INFO    : Gen at bus 38	: Vg=1.03973 -> Vg=1.05505
% INFO    : Gen at bus 39	: Pg=2329.0, Qg=143.0 -> Pg=2098.522, Qg=139.816
% INFO    : Gen at bus 39	: Vg=1.02632 -> Vg=1.05999
% INFO    : 
% INFO    : === Writing Matpower Case File Notes ===
