%%%%%%%%%%%%%%%%%%%%%%%%%%%%%%%%%%%%%%%%%%%%%%%%%%%%%%%%%%%%%%%%%%%%%%%%%%%
%%%%                                                                  %%%%%
%%%%    IEEE PES Power Grid Library - Optimal Power Flow - v17.07     %%%%%
%%%%          (https://github.com/power-grid-lib/pglib-opf)           %%%%%
%%%%             Benchmark Group - Active Power Increase              %%%%%
%%%%                         27 - June - 2017                         %%%%%
%%%%                                                                  %%%%%
%%%%%%%%%%%%%%%%%%%%%%%%%%%%%%%%%%%%%%%%%%%%%%%%%%%%%%%%%%%%%%%%%%%%%%%%%%%
function mpc = pglib_opf_case2737sop_mp__api
mpc.version = '2';
mpc.baseMVA = 100.0;

%% area data
%	area	refbus
mpc.areas = [
	1	 18;
];

%% bus data
%	bus_i	type	Pd	Qd	Gs	Bs	area	Vm	Va	baseKV	zone	Vmax	Vmin
mpc.bus = [
	1	 1	 0.00	 0.00	 0.0	 0.0	 1	    1.09826	   -0.66111	 220.0	 1	    1.11000	    0.95000;
	2	 1	 0.00	 0.00	 0.0	 0.0	 1	    1.10891	    0.97815	 220.0	 1	    1.11000	    0.95000;
	3	 1	 0.00	 0.00	 0.0	 0.0	 1	    1.08481	  -15.96668	 220.0	 1	    1.11000	    0.95000;
	4	 1	 0.00	 0.00	 0.0	 0.0	 1	    1.09613	   -3.32418	 220.0	 1	    1.11000	    0.95000;
	5	 1	 0.00	 0.00	 0.0	 0.0	 1	    1.09612	   -3.32564	 220.0	 1	    1.11000	    0.95000;
	6	 1	 0.00	 0.00	 0.0	 0.0	 1	    1.09426	   -8.81395	 220.0	 1	    1.11000	    0.95000;
	7	 1	 0.00	 0.00	 0.0	 0.0	 1	    1.09428	   -8.81068	 220.0	 1	    1.11000	    0.95000;
	8	 1	 0.00	 0.00	 0.0	 -50.0	 1	    1.04815	   -6.50831	 400.0	 1	    1.05000	    0.95000;
	9	 1	 0.00	 0.00	 0.0	 0.0	 1	    1.04817	   -6.50497	 400.0	 1	    1.05000	    0.95000;
	10	 1	 0.00	 0.00	 0.0	 0.0	 1	    1.09032	   -8.95301	 220.0	 1	    1.11000	    0.95000;
	11	 1	 0.00	 0.00	 0.0	 0.0	 1	    1.09028	   -8.96112	 220.0	 1	    1.11000	    0.95000;
	12	 1	 0.00	 0.00	 0.0	 0.0	 1	    1.09027	   -8.96204	 220.0	 1	    1.11000	    0.95000;
	13	 1	 0.00	 0.00	 0.0	 0.0	 1	    1.09025	   -8.96834	 220.0	 1	    1.11000	    0.95000;
	14	 1	 0.00	 0.00	 0.0	 -50.0	 1	    1.04390	   -5.67749	 400.0	 1	    1.05000	    0.95000;
	15	 1	 0.00	 0.00	 0.0	 0.0	 1	    1.05000	   -8.66385	 400.0	 1	    1.05000	    0.95000;
	16	 1	 0.00	 0.00	 0.0	 0.0	 1	    1.05000	   -8.66385	 400.0	 1	    1.05000	    0.95000;
	17	 1	 0.00	 0.00	 0.0	 0.0	 1	    1.08988	  -12.77909	 220.0	 1	    1.11000	    0.95000;
	18	 1	 0.00	 0.00	 0.0	 0.0	 1	    1.08984	  -12.77598	 220.0	 1	    1.11000	    0.95000;
	19	 1	 0.00	 0.00	 0.0	 0.0	 1	    1.09806	   -2.59323	 220.0	 1	    1.11000	    0.95000;
	20	 1	 0.00	 0.00	 0.0	 0.0	 1	    1.09805	   -2.58838	 220.0	 1	    1.11000	    0.95000;
	21	 1	 0.00	 0.00	 0.0	 0.0	 1	    1.09614	   -8.15974	 220.0	 1	    1.11000	    0.95000;
	22	 1	 0.00	 0.00	 0.0	 0.0	 1	    1.09614	   -8.15974	 220.0	 1	    1.11000	    0.95000;
	23	 1	 0.00	 0.00	 0.0	 0.0	 1	    1.08834	   -9.11158	 220.0	 1	    1.11000	    0.95000;
	24	 1	 0.00	 0.00	 0.0	 0.0	 1	    1.10223	   -1.55042	 220.0	 1	    1.11000	    0.95000;
	25	 1	 0.00	 0.00	 0.0	 -50.0	 1	    1.04736	   -7.14337	 400.0	 1	    1.05000	    0.95000;
	26	 2	 91.45	 65.09	 0.0	 0.0	 1	    1.10849	   -0.15447	 220.0	 1	    1.11000	    0.95000;
	27	 2	 53.42	 35.09	 0.0	 0.0	 1	    1.11000	    1.29100	 220.0	 1	    1.11000	    0.95000;
	28	 3	 0.00	 0.00	 0.0	 0.0	 1	    1.04369	   -0.00000	 400.0	 1	    1.05000	    0.95000;
	29	 2	 84.84	 72.00	 0.0	 0.0	 1	    1.04371	    0.01343	 400.0	 1	    1.05000	    0.95000;
	30	 1	 0.00	 0.00	 0.0	 0.0	 1	    1.08871	   -8.59590	 220.0	 1	    1.11000	    0.95000;
	31	 1	 0.00	 0.00	 0.0	 0.0	 1	    1.04492	   -1.18754	 400.0	 1	    1.05000	    0.95000;
	32	 1	 0.00	 0.00	 0.0	 0.0	 1	    1.08874	   -9.18957	 220.0	 1	    1.11000	    0.95000;
	33	 1	 0.00	 0.00	 0.0	 0.0	 1	    1.09176	   -4.34351	 220.0	 1	    1.11000	    0.95000;
	34	 1	 0.00	 0.00	 0.0	 0.0	 1	    1.11000	   -4.38790	 220.0	 2	    1.11000	    0.95000;
	35	 1	 0.00	 0.00	 0.0	 0.0	 1	    1.07892	   -5.12233	 220.0	 2	    1.11000	    0.95000;
	36	 1	 0.00	 0.00	 0.0	 0.0	 1	    1.09672	   -4.14819	 220.0	 2	    1.11000	    0.95000;
	37	 1	 0.00	 0.00	 0.0	 0.0	 1	    1.09667	   -4.15164	 220.0	 2	    1.11000	    0.95000;
	38	 1	 0.00	 0.00	 0.0	 0.0	 1	    1.09725	   -3.62876	 220.0	 2	    1.11000	    0.95000;
	39	 1	 0.00	 0.00	 0.0	 0.0	 1	    1.10842	   -4.85955	 220.0	 2	    1.11000	    0.95000;
	40	 1	 0.00	 0.00	 0.0	 0.0	 1	    1.10835	   -4.85477	 220.0	 2	    1.11000	    0.95000;
	41	 1	 0.00	 0.00	 0.0	 0.0	 1	    1.03955	   -5.16121	 400.0	 2	    1.05000	    0.95000;
	42	 2	 13.00	 0.00	 0.0	 0.0	 1	    1.10358	   -5.23594	 220.0	 2	    1.11000	    0.95000;
	43	 2	 13.00	 0.00	 0.0	 0.0	 1	    1.10355	   -5.23703	 220.0	 2	    1.11000	    0.95000;
	44	 2	 25.00	 0.00	 0.0	 0.0	 1	    1.04641	   -4.45589	 400.0	 2	    1.05000	    0.95000;
	45	 1	 0.00	 0.00	 0.0	 0.0	 1	    1.04648	   -4.45925	 400.0	 2	    1.05000	    0.95000;
	46	 1	 0.00	 0.00	 0.0	 0.0	 1	    1.10694	   -5.38354	 220.0	 2	    1.11000	    0.95000;
	47	 1	 0.00	 0.00	 0.0	 0.0	 1	    1.04216	  -10.23769	 400.0	 2	    1.05000	    0.95000;
	48	 1	 0.00	 0.00	 0.0	 0.0	 1	    1.04217	  -10.24528	 400.0	 2	    1.05000	    0.95000;
	49	 1	 0.00	 0.00	 0.0	 0.0	 1	    1.04278	   -4.62524	 400.0	 2	    1.05000	    0.95000;
	50	 1	 0.00	 0.00	 0.0	 0.0	 1	    1.10133	   -1.78399	 220.0	 2	    1.11000	    0.95000;
	51	 1	 0.00	 0.00	 0.0	 0.0	 1	    1.10129	   -1.77170	 220.0	 2	    1.11000	    0.95000;
	52	 1	 0.00	 0.00	 0.0	 0.0	 1	    1.04495	   -5.97537	 400.0	 2	    1.05000	    0.95000;
	53	 1	 0.00	 0.00	 0.0	 0.0	 1	    1.04495	   -5.97559	 400.0	 2	    1.05000	    0.95000;
	54	 1	 0.00	 0.00	 0.0	 0.0	 1	    1.09888	   -3.19681	 220.0	 2	    1.11000	    0.95000;
	55	 2	 13.00	 0.00	 0.0	 0.0	 1	    1.09888	   -3.17770	 220.0	 2	    1.11000	    0.95000;
	56	 2	 13.00	 0.00	 0.0	 0.0	 1	    1.04526	   -5.54297	 400.0	 2	    1.05000	    0.95000;
	57	 2	 13.00	 0.00	 0.0	 0.0	 1	    1.04525	   -5.54993	 400.0	 2	    1.05000	    0.95000;
	58	 2	 128.85	 25.27	 0.0	 0.0	 1	    1.09675	   -5.73471	 220.0	 2	    1.11000	    0.95000;
	59	 1	 0.00	 0.00	 0.0	 0.0	 1	    1.09685	   -5.72632	 220.0	 2	    1.11000	    0.95000;
	60	 1	 0.00	 0.00	 0.0	 0.0	 1	    1.10289	   -5.29868	 220.0	 2	    1.11000	    0.95000;
	61	 1	 0.00	 0.00	 0.0	 0.0	 1	    1.10048	   -6.01726	 220.0	 2	    1.11000	    0.95000;
	62	 1	 0.00	 0.00	 0.0	 0.0	 1	    1.10045	   -6.01880	 220.0	 2	    1.11000	    0.95000;
	63	 1	 0.00	 0.00	 0.0	 0.0	 1	    1.03784	   -6.82717	 400.0	 2	    1.05000	    0.95000;
	64	 1	 0.00	 0.00	 0.0	 0.0	 1	    1.03788	   -6.84130	 400.0	 2	    1.05000	    0.95000;
	65	 1	 0.00	 224.80	 0.0	 0.0	 1	    1.05000	   -6.81002	 750.0	 2	    1.05000	    0.90000;
	66	 1	 0.00	 0.00	 0.0	 0.0	 1	    1.09980	   -4.96797	 220.0	 2	    1.11000	    0.95000;
	67	 1	 0.00	 0.00	 0.0	 0.0	 1	    1.10083	   -4.76204	 220.0	 2	    1.11000	    0.95000;
	68	 1	 0.00	 0.00	 0.0	 0.0	 1	    1.10060	    0.22718	 220.0	 2	    1.11000	    0.95000;
	69	 1	 0.00	 0.00	 0.0	 0.0	 1	    1.10187	   -1.95214	 220.0	 3	    1.11000	    0.95000;
	70	 1	 0.00	 0.00	 0.0	 0.0	 1	    1.10351	   -3.11010	 220.0	 3	    1.11000	    0.95000;
	71	 1	 0.00	 0.00	 0.0	 0.0	 1	    1.10349	   -3.11105	 220.0	 3	    1.11000	    0.95000;
	72	 1	 0.00	 0.00	 0.0	 0.0	 1	    1.10323	   -0.01803	 220.0	 3	    1.11000	    0.95000;
	73	 1	 0.00	 0.00	 0.0	 0.0	 1	    1.10328	   -0.00615	 220.0	 3	    1.11000	    0.95000;
	74	 1	 0.00	 0.00	 0.0	 0.0	 1	    1.10861	    2.43151	 220.0	 3	    1.11000	    0.95000;
	75	 1	 0.00	 0.00	 0.0	 0.0	 1	    1.10860	    2.42913	 220.0	 3	    1.11000	    0.95000;
	76	 1	 0.00	 0.00	 0.0	 0.0	 1	    1.09887	   -4.95437	 220.0	 3	    1.11000	    0.95000;
	77	 1	 0.00	 0.00	 0.0	 0.0	 1	    1.09883	   -4.95578	 220.0	 3	    1.11000	    0.95000;
	78	 2	 51.25	 70.00	 0.0	 0.0	 1	    1.10721	    0.79309	 220.0	 3	    1.11000	    0.95000;
	79	 2	 17.08	 21.00	 0.0	 0.0	 1	    1.11000	    1.45165	 220.0	 3	    1.11000	    0.95000;
	80	 1	 8.74	 0.91	 0.0	 0.0	 1	    1.10093	    1.24818	 220.0	 3	    1.11000	    0.95000;
	81	 1	 0.00	 0.00	 0.0	 0.0	 1	    1.10094	    1.24265	 220.0	 3	    1.11000	    0.95000;
	82	 2	 34.17	 57.00	 0.0	 0.0	 1	    1.03875	   -2.55740	 400.0	 3	    1.05000	    0.95000;
	83	 1	 0.00	 0.00	 0.0	 0.0	 1	    1.10733	   -1.28834	 220.0	 3	    1.11000	    0.95000;
	84	 1	 0.00	 0.00	 0.0	 0.0	 1	    1.10827	    1.80984	 220.0	 3	    1.11000	    0.95000;
	85	 1	 0.00	 0.00	 0.0	 0.0	 1	    1.10824	    1.80414	 220.0	 3	    1.11000	    0.95000;
	86	 1	 32.97	 -8.40	 0.0	 0.0	 1	    1.10347	   -1.71096	 220.0	 3	    1.11000	    0.95000;
	87	 1	 0.00	 0.00	 0.0	 0.0	 1	    1.10346	   -1.71338	 220.0	 3	    1.11000	    0.95000;
	88	 1	 0.00	 0.00	 0.0	 0.0	 1	    1.09963	   -0.05546	 220.0	 3	    1.11000	    0.95000;
	89	 1	 0.00	 0.00	 0.0	 0.0	 1	    1.09963	   -0.05475	 220.0	 3	    1.11000	    0.95000;
	90	 1	 0.00	 0.00	 0.0	 0.0	 1	    1.10354	   -1.44013	 220.0	 3	    1.11000	    0.95000;
	91	 1	 0.00	 0.00	 0.0	 0.0	 1	    1.10352	   -1.44691	 220.0	 3	    1.11000	    0.95000;
	92	 1	 0.00	 0.00	 0.0	 0.0	 1	    1.05000	   -0.97307	 400.0	 3	    1.05000	    0.95000;
	93	 1	 0.00	 0.00	 0.0	 0.0	 1	    1.04999	   -0.97430	 400.0	 3	    1.05000	    0.95000;
	94	 1	 0.00	 0.00	 0.0	 0.0	 1	    1.10257	    0.54721	 220.0	 3	    1.11000	    0.95000;
	95	 1	 0.00	 0.00	 0.0	 0.0	 1	    1.10260	    0.55671	 220.0	 3	    1.11000	    0.95000;
	96	 1	 0.00	 0.00	 0.0	 0.0	 1	    1.10794	    1.33320	 220.0	 3	    1.11000	    0.95000;
	97	 1	 0.00	 0.00	 0.0	 0.0	 1	    1.10795	    1.32021	 220.0	 3	    1.11000	    0.95000;
	98	 2	 18.86	 2.19	 0.0	 0.0	 1	    1.11000	    1.36769	 220.0	 3	    1.11000	    0.95000;
	99	 1	 31.61	 3.29	 0.0	 0.0	 1	    1.10995	    1.34577	 220.0	 3	    1.11000	    0.95000;
	100	 1	 0.00	 0.00	 0.0	 0.0	 1	    1.10348	   -3.11088	 220.0	 3	    1.11000	    0.95000;
	101	 1	 0.00	 0.00	 0.0	 0.0	 1	    1.10349	   -3.10994	 220.0	 3	    1.11000	    0.95000;
	102	 1	 0.00	 0.00	 0.0	 0.0	 1	    1.09699	   -3.62191	 220.0	 3	    1.11000	    0.95000;
	103	 1	 0.00	 0.00	 0.0	 0.0	 1	    1.09696	   -3.60503	 220.0	 3	    1.11000	    0.95000;
	104	 2	 26.57	 40.00	 0.0	 0.0	 1	    1.11000	    2.12326	 220.0	 3	    1.11000	    0.95000;
	105	 1	 0.00	 0.00	 0.0	 0.0	 1	    1.10980	    2.07861	 220.0	 3	    1.11000	    0.95000;
	106	 2	 13.29	 18.00	 0.0	 0.0	 1	    1.10298	    0.46713	 220.0	 3	    1.11000	    0.95000;
	107	 1	 0.00	 0.00	 0.0	 0.0	 1	    1.10290	    0.44522	 220.0	 3	    1.11000	    0.95000;
	108	 1	 52.44	 5.87	 0.0	 0.0	 1	    1.10496	   -0.80571	 220.0	 3	    1.11000	    0.95000;
	109	 1	 33.26	 3.34	 0.0	 0.0	 1	    1.10501	   -0.80012	 220.0	 3	    1.11000	    0.95000;
	110	 1	 0.00	 0.00	 0.0	 0.0	 1	    1.10334	   -0.55801	 220.0	 3	    1.11000	    0.95000;
	111	 1	 0.00	 0.00	 0.0	 0.0	 1	    1.09956	    2.56281	 220.0	 3	    1.11000	    0.95000;
	112	 1	 0.00	 0.00	 0.0	 0.0	 1	    1.09958	    2.55633	 220.0	 3	    1.11000	    0.95000;
	113	 1	 0.00	 0.00	 0.0	 0.0	 1	    1.10145	    0.85056	 220.0	 3	    1.11000	    0.95000;
	114	 1	 0.00	 0.00	 0.0	 0.0	 1	    1.10150	    0.85025	 220.0	 3	    1.11000	    0.95000;
	115	 1	 0.00	 0.00	 0.0	 0.0	 1	    1.03859	   -2.28415	 400.0	 3	    1.05000	    0.95000;
	116	 1	 0.00	 0.00	 0.0	 0.0	 1	    1.10841	    0.73887	 220.0	 3	    1.11000	    0.95000;
	117	 2	 15.18	 15.00	 0.0	 0.0	 1	    1.10842	    0.74341	 220.0	 3	    1.11000	    0.95000;
	118	 1	 0.00	 0.00	 0.0	 0.0	 1	    1.10479	   -0.24994	 220.0	 3	    1.11000	    0.95000;
	119	 1	 0.00	 0.00	 0.0	 0.0	 1	    1.10479	   -0.25438	 220.0	 3	    1.11000	    0.95000;
	120	 1	 0.00	 0.00	 0.0	 0.0	 1	    1.04705	   -5.44717	 400.0	 3	    1.05000	    0.95000;
	121	 1	 0.00	 0.00	 0.0	 0.0	 1	    1.04709	   -5.44209	 400.0	 3	    1.05000	    0.95000;
	122	 1	 0.00	 0.00	 0.0	 0.0	 1	    1.04523	   -2.24539	 400.0	 3	    1.05000	    0.95000;
	123	 1	 0.00	 0.00	 0.0	 0.0	 1	    1.04527	   -2.24450	 400.0	 3	    1.05000	    0.95000;
	124	 1	 0.00	 0.00	 0.0	 0.0	 1	    1.10206	   -0.69919	 220.0	 3	    1.11000	    0.95000;
	125	 1	 5.56	 0.87	 0.0	 0.0	 1	    1.11000	    2.86627	 220.0	 3	    1.11000	    0.95000;
	126	 2	 37.77	 27.71	 0.0	 0.0	 1	    1.10996	    2.91082	 220.0	 3	    1.11000	    0.95000;
	127	 2	 23.16	 25.80	 0.0	 0.0	 1	    1.03321	   -2.57141	 400.0	 3	    1.05000	    0.95000;
	128	 1	 0.00	 0.00	 0.0	 0.0	 1	    1.03317	   -2.55798	 400.0	 3	    1.05000	    0.95000;
	129	 1	 0.00	 0.00	 0.0	 0.0	 1	    1.10324	   -1.76138	 220.0	 3	    1.11000	    0.95000;
	130	 1	 0.00	 0.00	 0.0	 0.0	 1	    1.10320	   -1.75451	 220.0	 3	    1.11000	    0.95000;
	131	 1	 0.00	 0.00	 0.0	 0.0	 1	    1.10338	   -1.48406	 220.0	 3	    1.11000	    0.95000;
	132	 2	 260.04	 9.00	 0.0	 0.0	 1	    1.09909	   -5.74064	 220.0	 3	    1.11000	    0.95000;
	133	 2	 260.04	 6.00	 0.0	 0.0	 1	    1.09906	   -5.74458	 220.0	 3	    1.11000	    0.95000;
	134	 1	 0.98	 1.97	 0.0	 0.0	 1	    1.09033	   -4.23974	 220.0	 4	    1.11000	    0.95000;
	135	 2	 28.93	 14.28	 0.0	 0.0	 1	    1.09035	   -4.23762	 220.0	 4	    1.11000	    0.95000;
	136	 1	 0.00	 0.00	 0.0	 0.0	 1	    1.10600	    2.13468	 220.0	 4	    1.11000	    0.95000;
	137	 1	 0.00	 0.00	 0.0	 0.0	 1	    1.10902	    3.67802	 220.0	 4	    1.11000	    0.95000;
	138	 1	 0.00	 0.00	 0.0	 0.0	 1	    1.03970	    0.21924	 400.0	 4	    1.05000	    0.95000;
	139	 1	 0.00	 0.00	 0.0	 0.0	 1	    1.03969	    0.21010	 400.0	 4	    1.05000	    0.95000;
	140	 1	 0.00	 0.00	 0.0	 0.0	 1	    1.09013	   -5.25206	 220.0	 4	    1.11000	    0.95000;
	141	 1	 0.00	 0.00	 0.0	 0.0	 1	    1.09911	    0.79093	 220.0	 4	    1.11000	    0.95000;
	142	 1	 0.00	 0.00	 0.0	 0.0	 1	    1.09911	    0.79093	 220.0	 4	    1.11000	    0.95000;
	143	 1	 0.00	 0.00	 0.0	 0.0	 1	    1.11000	    3.20835	 220.0	 4	    1.11000	    0.95000;
	144	 1	 0.00	 0.00	 0.0	 0.0	 1	    1.10115	   -0.56469	 220.0	 4	    1.11000	    0.95000;
	145	 1	 0.00	 0.00	 0.0	 0.0	 1	    1.10115	   -0.56469	 220.0	 4	    1.11000	    0.95000;
	146	 1	 14.49	 13.26	 0.0	 0.0	 1	    1.08589	   -4.06872	 220.0	 4	    1.11000	    0.95000;
	147	 1	 0.00	 0.00	 0.0	 0.0	 1	    1.08591	   -4.05985	 220.0	 4	    1.11000	    0.95000;
	148	 2	 20.63	 14.87	 0.0	 0.0	 1	    1.10264	    2.08199	 220.0	 4	    1.11000	    0.95000;
	149	 1	 0.00	 0.00	 0.0	 0.0	 1	    1.10277	    2.06217	 220.0	 4	    1.11000	    0.95000;
	150	 2	 20.86	 15.00	 0.0	 0.0	 1	    1.05000	   -2.00992	 400.0	 4	    1.05000	    0.95000;
	151	 2	 39.24	 21.48	 0.0	 0.0	 1	    1.04996	   -2.01317	 400.0	 4	    1.05000	    0.95000;
	152	 1	 0.00	 0.00	 0.0	 0.0	 1	    1.08739	   -3.96160	 220.0	 4	    1.11000	    0.95000;
	153	 1	 0.00	 0.00	 0.0	 0.0	 1	    1.10593	    3.42172	 220.0	 4	    1.11000	    0.95000;
	154	 1	 0.00	 0.00	 0.0	 0.0	 1	    1.10596	    3.41654	 220.0	 4	    1.11000	    0.95000;
	155	 2	 0.00	 0.00	 0.0	 0.0	 1	    1.11000	    5.30359	 220.0	 4	    1.11000	    0.95000;
	156	 2	 26.33	 33.00	 0.0	 0.0	 1	    1.11000	    5.30468	 220.0	 4	    1.11000	    0.95000;
	157	 1	 0.00	 0.00	 0.0	 0.0	 1	    1.04858	    5.17642	 400.0	 4	    1.05000	    0.95000;
	158	 2	 18.96	 25.00	 0.0	 0.0	 1	    1.04863	    5.18373	 400.0	 4	    1.05000	    0.95000;
	159	 1	 0.00	 0.00	 0.0	 0.0	 1	    1.10363	    1.21774	 220.0	 4	    1.11000	    0.95000;
	160	 1	 0.00	 0.00	 0.0	 0.0	 1	    1.10363	    1.21774	 220.0	 4	    1.11000	    0.95000;
	161	 1	 0.00	 0.00	 0.0	 0.0	 1	    1.03527	   -2.58508	 400.0	 4	    1.05000	    0.95000;
	162	 1	 0.00	 0.00	 0.0	 0.0	 1	    1.03773	   -1.91298	 400.0	 4	    1.05000	    0.95000;
	163	 1	 0.00	 0.00	 0.0	 0.0	 1	    1.03775	   -1.90536	 400.0	 4	    1.05000	    0.95000;
	164	 2	 22.14	 11.00	 0.0	 0.0	 1	    1.08641	   -3.96099	 220.0	 4	    1.11000	    0.95000;
	165	 2	 21.95	 10.67	 0.0	 0.0	 1	    1.08657	   -3.96693	 220.0	 4	    1.11000	    0.95000;
	166	 1	 0.00	 0.00	 0.0	 0.0	 1	    1.08657	   -3.96693	 220.0	 4	    1.11000	    0.95000;
	167	 1	 0.00	 0.00	 0.0	 0.0	 1	    1.09338	   -8.66201	 220.0	 4	    1.11000	    0.95000;
	168	 1	 0.00	 0.00	 0.0	 0.0	 1	    1.09915	    0.70969	 220.0	 4	    1.11000	    0.95000;
	169	 1	 0.00	 0.00	 0.0	 0.0	 1	    1.09842	   -5.07541	 220.0	 4	    1.11000	    0.95000;
	170	 1	 0.00	 0.00	 0.0	 0.0	 1	    1.09840	   -5.08002	 220.0	 4	    1.11000	    0.95000;
	171	 1	 0.00	 0.00	 0.0	 0.0	 1	    1.02303	   -4.72738	 400.0	 4	    1.05000	    0.95000;
	172	 1	 0.00	 0.00	 0.0	 0.0	 1	    1.02303	   -4.72738	 400.0	 4	    1.05000	    0.95000;
	173	 1	 0.00	 0.00	 0.0	 0.0	 1	    1.09130	   -0.85687	 220.0	 4	    1.11000	    0.95000;
	174	 1	 0.00	 0.00	 0.0	 0.0	 1	    1.09130	   -0.85669	 220.0	 4	    1.11000	    0.95000;
	175	 1	 0.00	 0.00	 0.0	 0.0	 1	    1.07768	   -5.77037	 220.0	 4	    1.11000	    0.95000;
	176	 1	 0.00	 0.00	 0.0	 0.0	 1	    1.10519	    1.74418	 220.0	 4	    1.11000	    0.95000;
	177	 1	 0.00	 0.00	 0.0	 0.0	 1	    1.10520	    1.74384	 220.0	 4	    1.11000	    0.95000;
	178	 1	 0.00	 0.00	 0.0	 0.0	 1	    1.10590	    0.54239	 220.0	 4	    1.11000	    0.95000;
	179	 1	 0.00	 0.00	 0.0	 0.0	 1	    1.10590	    0.54239	 220.0	 4	    1.11000	    0.95000;
	180	 2	 5.94	 1.50	 0.0	 0.0	 1	    1.11000	    5.84418	 220.0	 4	    1.11000	    0.95000;
	181	 1	 0.00	 0.00	 0.0	 0.0	 1	    1.09211	   -0.81268	 220.0	 4	    1.11000	    0.95000;
	182	 1	 0.00	 0.00	 0.0	 0.0	 1	    1.08294	  -10.84654	 220.0	 5	    1.11000	    0.95000;
	183	 1	 0.00	 0.00	 0.0	 0.0	 1	    1.09860	  -10.73174	 220.0	 5	    1.11000	    0.95000;
	184	 1	 0.00	 0.00	 0.0	 0.0	 1	    1.03518	  -10.27245	 400.0	 5	    1.05000	    0.95000;
	185	 1	 0.00	 0.00	 0.0	 0.0	 1	    1.03521	  -10.26024	 400.0	 5	    1.05000	    0.95000;
	186	 1	 0.00	 0.00	 0.0	 0.0	 1	    1.04098	  -14.60699	 400.0	 5	    1.05000	    0.95000;
	187	 1	 0.00	 0.00	 0.0	 0.0	 1	    1.04101	  -14.61042	 400.0	 5	    1.05000	    0.95000;
	188	 1	 0.00	 0.00	 0.0	 0.0	 1	    1.10999	  -10.55961	 220.0	 5	    1.11000	    0.95000;
	189	 1	 0.00	 0.00	 0.0	 0.0	 1	    1.11000	  -10.56111	 220.0	 5	    1.11000	    0.95000;
	190	 1	 0.00	 0.00	 0.0	 0.0	 1	    1.10162	  -11.01716	 220.0	 5	    1.11000	    0.95000;
	191	 1	 0.00	 0.00	 0.0	 0.0	 1	    1.10158	  -11.02323	 220.0	 5	    1.11000	    0.95000;
	192	 1	 0.00	 0.00	 0.0	 0.0	 1	    1.03126	  -12.21411	 400.0	 5	    1.05000	    0.95000;
	193	 1	 0.00	 0.00	 0.0	 0.0	 1	    1.08443	  -10.15905	 220.0	 5	    1.11000	    0.95000;
	194	 1	 0.00	 0.00	 0.0	 0.0	 1	    1.08444	  -10.15707	 220.0	 5	    1.11000	    0.95000;
	195	 1	 0.00	 0.00	 0.0	 0.0	 1	    1.05000	  -15.08215	 400.0	 5	    1.05000	    0.95000;
	196	 1	 0.00	 0.00	 0.0	 0.0	 1	    1.05000	  -15.08325	 400.0	 5	    1.05000	    0.95000;
	197	 1	 0.00	 0.00	 0.0	 0.0	 1	    1.08349	  -14.37572	 220.0	 5	    1.11000	    0.95000;
	198	 1	 0.00	 0.00	 0.0	 0.0	 1	    1.08349	  -14.37738	 220.0	 5	    1.11000	    0.95000;
	199	 1	 0.00	 0.00	 0.0	 -117.0	 1	    1.02566	  -13.06061	 400.0	 5	    1.05000	    0.95000;
	200	 1	 0.00	 0.00	 0.0	 0.0	 1	    1.02571	  -13.04929	 400.0	 5	    1.05000	    0.95000;
	201	 1	 0.00	 0.00	 0.0	 0.0	 1	    1.08674	  -10.76894	 220.0	 5	    1.11000	    0.95000;
	202	 1	 0.00	 0.00	 0.0	 0.0	 1	    1.08669	  -10.76488	 220.0	 5	    1.11000	    0.95000;
	203	 1	 0.00	 0.00	 0.0	 0.0	 1	    1.07754	   -9.10321	 220.0	 5	    1.11000	    0.95000;
	204	 1	 0.00	 0.00	 0.0	 0.0	 1	    1.07754	   -9.11058	 220.0	 5	    1.11000	    0.95000;
	205	 2	 759.24	 60.00	 0.0	 0.0	 1	    1.03315	  -16.03584	 400.0	 5	    1.05000	    0.95000;
	206	 1	 0.00	 0.00	 0.0	 0.0	 1	    1.03319	  -16.03019	 400.0	 5	    1.05000	    0.95000;
	207	 1	 0.00	 0.00	 0.0	 0.0	 1	    1.09804	  -11.29366	 220.0	 5	    1.11000	    0.95000;
	208	 1	 0.00	 0.00	 0.0	 0.0	 1	    1.09806	  -11.29432	 220.0	 5	    1.11000	    0.95000;
	209	 1	 15.40	 2.00	 0.0	 0.0	 1	    1.07175	  -11.44250	 110.0	 1	    1.12000	    0.95000;
	210	 1	 5.13	 0.50	 0.0	 0.0	 1	    1.05157	  -19.73687	 110.0	 1	    1.12000	    0.95000;
	211	 1	 5.13	 2.00	 0.0	 0.0	 1	    1.09521	  -10.12847	 110.0	 1	    1.12000	    0.95000;
	212	 1	 8.90	 4.60	 0.0	 0.0	 1	    1.06673	  -13.63228	 110.0	 1	    1.12000	    0.95000;
	213	 1	 3.08	 0.40	 0.0	 0.0	 1	    1.06186	   -1.51851	 110.0	 1	    1.12000	    0.95000;
	214	 1	 2.22	 0.30	 0.0	 0.0	 1	    1.05530	   -4.26055	 110.0	 1	    1.12000	    0.95000;
	215	 2	 11.39	 8.80	 0.0	 0.0	 1	    1.06391	  -12.96078	 110.0	 1	    1.12000	    0.95000;
	216	 1	 9.41	 0.50	 0.0	 0.0	 1	    1.06870	  -12.72957	 110.0	 1	    1.12000	    0.95000;
	217	 1	 7.70	 1.00	 0.0	 0.0	 1	    1.06734	  -12.80867	 110.0	 1	    1.12000	    0.95000;
	218	 1	 12.83	 1.50	 0.0	 0.0	 1	    1.06532	  -13.04853	 110.0	 1	    1.12000	    0.95000;
	219	 1	 9.75	 2.80	 0.0	 0.0	 1	    1.07039	  -11.77254	 110.0	 1	    1.12000	    0.95000;
	220	 1	 10.27	 1.50	 0.0	 0.0	 1	    1.11318	   -7.68304	 110.0	 1	    1.12000	    0.95000;
	221	 2	 0.00	 0.00	 0.0	 0.0	 1	    1.09612	   -5.68212	 110.0	 1	    1.12000	    0.95000;
	222	 2	 8.04	 1.70	 0.0	 0.0	 1	    1.08985	   -7.63894	 110.0	 1	    1.12000	    0.95000;
	223	 1	 11.98	 1.40	 0.0	 0.0	 1	    1.08605	  -10.69341	 110.0	 1	    1.12000	    0.95000;
	224	 1	 1.37	 0.10	 0.0	 0.0	 1	    1.05424	   -3.10696	 110.0	 1	    1.12000	    0.95000;
	225	 1	 3.94	 0.40	 0.0	 0.0	 1	    1.09010	   -8.91907	 110.0	 1	    1.12000	    0.95000;
	226	 1	 1.80	 0.00	 0.0	 0.0	 1	    1.06727	  -16.31460	 110.0	 1	    1.12000	    0.95000;
	227	 1	 14.55	 1.50	 0.0	 0.0	 1	    1.06937	  -12.54426	 110.0	 1	    1.12000	    0.95000;
	228	 1	 4.79	 1.00	 0.0	 0.0	 1	    1.08154	  -10.82123	 110.0	 1	    1.12000	    0.95000;
	229	 1	 6.16	 1.00	 0.0	 0.0	 1	    1.08158	  -10.81242	 110.0	 1	    1.12000	    0.95000;
	230	 1	 2.91	 0.78	 0.0	 0.0	 1	    1.10253	   -6.23054	 110.0	 1	    1.12000	    0.95000;
	231	 1	 2.91	 0.78	 0.0	 0.0	 1	    1.09295	   -8.61909	 110.0	 1	    1.12000	    0.95000;
	232	 1	 6.84	 1.00	 0.0	 0.0	 1	    1.08168	  -11.55638	 110.0	 1	    1.12000	    0.95000;
	233	 1	 6.16	 1.00	 0.0	 0.0	 1	    1.05547	   -4.21437	 110.0	 1	    1.12000	    0.95000;
	234	 1	 15.40	 0.50	 0.0	 0.0	 1	    1.06356	   -8.57900	 110.0	 1	    1.12000	    0.95000;
	235	 1	 42.78	 23.00	 0.0	 0.0	 1	    1.04103	   -3.71780	 110.0	 1	    1.12000	    0.95000;
	236	 1	 5.65	 0.50	 0.0	 0.0	 1	    1.07971	  -12.50228	 110.0	 1	    1.12000	    0.95000;
	237	 1	 7.70	 1.78	 0.0	 0.0	 1	    1.10420	   -6.32862	 110.0	 1	    1.12000	    0.95000;
	238	 1	 5.65	 0.60	 0.0	 0.0	 1	    1.08016	  -12.68848	 110.0	 1	    1.12000	    0.95000;
	239	 1	 4.28	 1.00	 0.0	 0.0	 1	    1.07176	  -13.47557	 110.0	 1	    1.12000	    0.95000;
	240	 2	 0.00	 0.00	 0.0	 0.0	 1	    1.11305	  -10.01714	 110.0	 1	    1.12000	    0.95000;
	241	 1	 9.41	 0.80	 0.0	 0.0	 1	    1.07832	  -13.68938	 110.0	 1	    1.12000	    0.95000;
	242	 1	 3.94	 0.83	 0.0	 0.0	 1	    1.09800	   -7.73183	 110.0	 1	    1.12000	    0.95000;
	243	 1	 6.33	 0.40	 0.0	 0.0	 1	    1.10810	   -4.29063	 110.0	 1	    1.12000	    0.95000;
	244	 1	 6.33	 0.40	 0.0	 0.0	 1	    1.10813	   -4.28178	 110.0	 1	    1.12000	    0.95000;
	245	 1	 3.08	 1.50	 0.0	 0.0	 1	    1.09057	  -10.92817	 110.0	 1	    1.12000	    0.95000;
	246	 1	 0.00	 0.00	 0.0	 0.0	 1	    1.06908	   -0.69289	 110.0	 1	    1.12000	    0.95000;
	247	 2	 0.00	 5.00	 0.0	 0.0	 1	    1.06615	    3.90502	 22.0	 1	    1.12000	    0.95000;
	248	 1	 6.84	 1.00	 0.0	 0.0	 1	    1.06053	  -17.73281	 110.0	 1	    1.12000	    0.95000;
	249	 1	 1.35	 0.00	 0.0	 0.0	 1	    1.06499	  -17.78322	 110.0	 1	    1.12000	    0.95000;
	250	 1	 1.35	 0.00	 0.0	 0.0	 1	    1.06708	  -16.85125	 110.0	 1	    1.12000	    0.95000;
	251	 1	 1.35	 0.00	 0.0	 0.0	 1	    1.04116	  -21.20141	 110.0	 1	    1.12000	    0.95000;
	252	 1	 3.77	 0.30	 0.0	 0.0	 1	    1.10002	   -6.89036	 110.0	 1	    1.12000	    0.95000;
	253	 1	 17.11	 5.00	 0.0	 0.0	 1	    1.08576	   -9.42362	 110.0	 1	    1.12000	    0.95000;
	254	 1	 16.26	 4.00	 0.0	 0.0	 1	    1.08058	  -11.46980	 110.0	 1	    1.12000	    0.95000;
	255	 1	 10.27	 1.00	 0.0	 0.0	 1	    1.05956	  -19.17161	 110.0	 1	    1.12000	    0.95000;
	256	 1	 13.69	 1.00	 0.0	 0.0	 1	    1.06166	  -16.56754	 110.0	 1	    1.12000	    0.95000;
	257	 1	 2.25	 0.00	 0.0	 0.0	 1	    1.06300	  -16.63849	 110.0	 1	    1.12000	    0.95000;
	258	 1	 3.85	 0.50	 0.0	 0.0	 1	    1.06351	   -1.49384	 110.0	 1	    1.12000	    0.95000;
	259	 1	 3.85	 0.50	 0.0	 0.0	 1	    1.06351	   -1.50116	 110.0	 1	    1.12000	    0.95000;
	260	 1	 8.39	 1.78	 0.0	 0.0	 1	    1.09517	   -7.06287	 110.0	 1	    1.12000	    0.95000;
	261	 1	 2.25	 0.00	 0.0	 0.0	 1	    1.04099	  -21.50772	 110.0	 1	    1.12000	    0.95000;
	262	 1	 9.24	 2.10	 0.0	 0.0	 1	    1.08578	  -11.90637	 110.0	 1	    1.12000	    0.95000;
	263	 1	 0.00	 0.00	 0.0	 0.0	 1	    1.09352	  -10.76221	 110.0	 1	    1.12000	    0.95000;
	264	 1	 1.37	 0.80	 0.0	 0.0	 1	    1.07767	  -13.35465	 110.0	 1	    1.12000	    0.95000;
	265	 1	 37.65	 20.00	 0.0	 0.0	 1	    1.06574	   -0.90277	 110.0	 1	    1.12000	    0.95000;
	266	 1	 59.89	 33.00	 0.0	 0.0	 1	    1.04598	   -4.50759	 110.0	 1	    1.12000	    0.95000;
	267	 1	 46.21	 0.90	 0.0	 0.0	 1	    1.07120	   -0.84471	 110.0	 1	    1.12000	    0.95000;
	268	 1	 0.90	 0.00	 0.0	 0.0	 1	    1.08419	  -11.51098	 110.0	 1	    1.12000	    0.95000;
	269	 1	 7.53	 0.10	 0.0	 0.0	 1	    1.08151	  -11.51387	 110.0	 1	    1.12000	    0.95000;
	270	 1	 6.33	 1.40	 0.0	 0.0	 1	    1.10527	   -5.74653	 110.0	 1	    1.12000	    0.95000;
	271	 1	 8.56	 1.00	 0.0	 0.0	 1	    1.06412	  -13.06303	 110.0	 1	    1.12000	    0.95000;
	272	 1	 7.70	 0.50	 0.0	 0.0	 1	    1.04094	  -20.91405	 110.0	 1	    1.12000	    0.95000;
	273	 1	 9.93	 1.45	 0.0	 0.0	 1	    1.09312	  -11.90871	 110.0	 1	    1.12000	    0.95000;
	274	 1	 0.68	 0.10	 0.0	 0.0	 1	    1.07022	  -12.19428	 110.0	 1	    1.12000	    0.95000;
	275	 1	 0.17	 0.03	 0.0	 0.0	 1	    1.09518	  -10.59786	 110.0	 1	    1.12000	    0.95000;
	276	 1	 0.00	 0.00	 0.0	 0.0	 1	    1.10554	   -8.68227	 110.0	 1	    1.12000	    0.95000;
	277	 1	 11.98	 3.59	 0.0	 0.0	 1	    1.10829	   -5.85247	 110.0	 1	    1.12000	    0.95000;
	278	 1	 0.00	 0.00	 0.0	 0.0	 1	    1.10414	   -6.56979	 110.0	 1	    1.12000	    0.95000;
	279	 1	 6.84	 1.40	 0.0	 0.0	 1	    1.09268	   -7.30890	 110.0	 1	    1.12000	    0.95000;
	280	 1	 2.57	 0.50	 0.0	 0.0	 1	    1.06822	  -13.32657	 110.0	 1	    1.12000	    0.95000;
	281	 1	 2.71	 0.00	 0.0	 0.0	 1	    1.07440	  -13.45318	 110.0	 1	    1.12000	    0.95000;
	282	 1	 5.13	 1.00	 0.0	 0.0	 1	    1.09609	   -9.96799	 110.0	 1	    1.12000	    0.95000;
	283	 1	 6.84	 1.00	 0.0	 0.0	 1	    1.08805	  -11.46287	 110.0	 1	    1.12000	    0.95000;
	284	 1	 30.80	 16.00	 0.0	 0.0	 1	    1.03479	   -4.86676	 110.0	 1	    1.12000	    0.95000;
	285	 1	 77.01	 42.00	 0.0	 0.0	 1	    1.03454	   -4.86730	 110.0	 1	    1.12000	    0.95000;
	286	 1	 1.88	 0.30	 0.0	 0.0	 1	    1.07484	   -0.95911	 110.0	 1	    1.12000	    0.95000;
	287	 1	 0.00	 0.00	 0.0	 0.0	 1	    1.06679	   -0.80685	 110.0	 1	    1.12000	    0.95000;
	288	 1	 9.07	 2.10	 0.0	 0.0	 1	    1.10753	   -5.70955	 110.0	 1	    1.12000	    0.95000;
	289	 1	 9.41	 1.20	 0.0	 0.0	 1	    1.10296	   -6.58681	 110.0	 1	    1.12000	    0.95000;
	290	 1	 8.56	 1.50	 0.0	 0.0	 1	    1.06715	  -15.70602	 110.0	 1	    1.12000	    0.95000;
	291	 1	 5.13	 1.00	 0.0	 0.0	 1	    1.06222	  -14.51271	 110.0	 1	    1.12000	    0.95000;
	292	 1	 4.79	 2.00	 0.0	 0.0	 1	    1.10482	  -10.67451	 110.0	 1	    1.12000	    0.95000;
	293	 1	 2.74	 0.40	 0.0	 0.0	 1	    1.09256	   -8.76053	 110.0	 1	    1.12000	    0.95000;
	294	 1	 17.97	 4.20	 0.0	 0.0	 1	    1.08884	  -11.36994	 110.0	 1	    1.12000	    0.95000;
	295	 1	 13.69	 2.50	 0.0	 0.0	 1	    1.08879	  -11.68457	 110.0	 1	    1.12000	    0.95000;
	296	 1	 5.31	 1.13	 0.0	 0.0	 1	    1.10794	   -5.48837	 110.0	 1	    1.12000	    0.95000;
	297	 1	 2.67	 1.10	 0.0	 0.0	 1	    1.11225	   -7.21728	 110.0	 1	    1.12000	    0.95000;
	298	 1	 4.11	 0.40	 0.0	 0.0	 1	    1.07736	  -11.90220	 110.0	 1	    1.12000	    0.95000;
	299	 1	 7.19	 0.50	 0.0	 0.0	 1	    1.09170	   -8.88940	 110.0	 1	    1.12000	    0.95000;
	300	 1	 6.84	 0.70	 0.0	 0.0	 1	    1.09826	   -6.67590	 110.0	 1	    1.12000	    0.95000;
	301	 1	 5.48	 1.27	 0.0	 0.0	 1	    1.10243	   -6.36946	 110.0	 1	    1.12000	    0.95000;
	302	 1	 8.73	 1.85	 0.0	 0.0	 1	    1.09237	   -8.67306	 110.0	 1	    1.12000	    0.95000;
	303	 1	 10.27	 1.00	 0.0	 0.0	 1	    1.07592	  -12.80817	 110.0	 1	    1.12000	    0.95000;
	304	 1	 0.00	 0.00	 0.0	 0.0	 1	    1.10440	   -6.57395	 110.0	 1	    1.12000	    0.95000;
	305	 1	 5.13	 1.00	 0.0	 0.0	 1	    1.05007	   -3.87199	 110.0	 1	    1.12000	    0.95000;
	306	 1	 11.12	 2.57	 0.0	 0.0	 1	    1.10789	   -5.48943	 110.0	 1	    1.12000	    0.95000;
	307	 1	 7.36	 1.56	 0.0	 0.0	 1	    1.09826	   -7.66781	 110.0	 1	    1.12000	    0.95000;
	308	 1	 9.93	 2.11	 0.0	 0.0	 1	    1.10775	   -5.87674	 110.0	 1	    1.12000	    0.95000;
	309	 1	 12.15	 2.58	 0.0	 0.0	 1	    1.10170	   -6.38713	 110.0	 1	    1.12000	    0.95000;
	310	 2	 16.96	 4.46	 0.0	 0.0	 1	    1.10592	   -6.40143	 110.0	 1	    1.12000	    0.95000;
	311	 1	 1.61	 0.56	 0.0	 0.0	 1	    1.10192	   -6.33177	 110.0	 1	    1.12000	    0.95000;
	312	 2	 14.37	 3.66	 0.0	 0.0	 1	    1.09616	   -8.28692	 110.0	 1	    1.12000	    0.95000;
	313	 1	 0.00	 0.00	 0.0	 0.0	 1	    1.10217	   -6.37584	 110.0	 1	    1.12000	    0.95000;
	314	 2	 7.92	 2.02	 0.0	 0.0	 1	    1.10843	   -5.90186	 110.0	 1	    1.12000	    0.95000;
	315	 1	 17.13	 4.72	 0.0	 0.0	 1	    1.10204	   -6.61953	 110.0	 1	    1.12000	    0.95000;
	316	 1	 8.39	 0.60	 0.0	 0.0	 1	    1.09289	   -8.68773	 110.0	 1	    1.12000	    0.95000;
	317	 1	 2.57	 0.50	 0.0	 0.0	 1	    1.06329	  -13.16932	 110.0	 1	    1.12000	    0.95000;