%%%%%%%%%%%%%%%%%%%%%%%%%%%%%%%%%%%%%%%%%%%%%%%%%%%%%%%%%%%%%%%%%%%%%%%%%%%
%%%%                                                                  %%%%%
%%%%    IEEE PES Power Grid Library - Optimal Power Flow - v17.07     %%%%%
%%%%          (https://github.com/power-grid-lib/pglib-opf)           %%%%%
%%%%             Benchmark Group - Active Power Increase              %%%%%
%%%%                         27 - June - 2017                         %%%%%
%%%%                                                                  %%%%%
%%%%%%%%%%%%%%%%%%%%%%%%%%%%%%%%%%%%%%%%%%%%%%%%%%%%%%%%%%%%%%%%%%%%%%%%%%%
function mpc = pglib_opf_case3120sp_mp__api
mpc.version = '2';
mpc.baseMVA = 100.0;

%% area data
%	area	refbus
mpc.areas = [
	1	 1;
];

%% bus data
%	bus_i	type	Pd	Qd	Gs	Bs	area	Vm	Va	baseKV	zone	Vmax	Vmin
mpc.bus = [
	1	 1	 0.00	 0.00	 0.0	 0.0	 1	    1.08286	   -2.82127	 220.0	 1	    1.11000	    0.95000;
	2	 1	 0.00	 0.00	 0.0	 0.0	 1	    1.10759	   -0.06680	 220.0	 1	    1.11000	    0.95000;
	3	 1	 0.00	 0.00	 0.0	 0.0	 1	    1.05162	  -14.05753	 220.0	 1	    1.11000	    0.95000;
	4	 1	 0.00	 0.00	 0.0	 0.0	 1	    1.05159	  -14.06971	 220.0	 1	    1.11000	    0.95000;
	5	 1	 0.00	 0.00	 0.0	 0.0	 1	    1.09358	  -17.88370	 220.0	 1	    1.11000	    0.95000;
	6	 1	 0.00	 0.00	 0.0	 0.0	 1	    1.08063	   -5.05823	 220.0	 1	    1.11000	    0.95000;
	7	 1	 0.00	 0.00	 0.0	 0.0	 1	    1.08056	   -5.06504	 220.0	 1	    1.11000	    0.95000;
	8	 1	 0.00	 0.00	 0.0	 0.0	 1	    1.09097	  -10.68316	 220.0	 1	    1.11000	    0.95000;
	9	 1	 0.00	 0.00	 0.0	 0.0	 1	    1.09114	  -10.66718	 220.0	 1	    1.11000	    0.95000;
	10	 1	 0.00	 0.00	 0.0	 0.0	 1	    1.11000	  -13.90759	 220.0	 1	    1.11000	    0.95000;
	11	 1	 0.00	 0.00	 0.0	 0.0	 1	    1.03851	   -9.47732	 400.0	 1	    1.05000	    0.95000;
	12	 1	 0.00	 0.00	 0.0	 0.0	 1	    1.03856	   -9.47569	 400.0	 1	    1.05000	    0.95000;
	13	 1	 0.00	 0.00	 0.0	 0.0	 1	    1.01930	  -12.15405	 400.0	 1	    1.05000	    0.95000;
	14	 1	 0.00	 0.00	 0.0	 0.0	 1	    1.04851	  -11.94913	 220.0	 1	    1.11000	    0.95000;
	15	 1	 0.00	 0.00	 0.0	 0.0	 1	    1.04837	  -11.95232	 220.0	 1	    1.11000	    0.95000;
	16	 1	 0.00	 0.00	 0.0	 0.0	 1	    1.01846	  -15.08061	 220.0	 1	    1.11000	    0.95000;
	17	 1	 0.00	 0.00	 0.0	 0.0	 1	    1.02578	  -14.97980	 220.0	 1	    1.11000	    0.95000;
	18	 1	 0.00	 0.00	 0.0	 0.0	 1	    1.04124	   -8.15283	 400.0	 1	    1.05000	    0.95000;
	19	 1	 0.00	 0.00	 0.0	 0.0	 1	    1.04128	   -8.14685	 400.0	 1	    1.05000	    0.95000;
	20	 1	 0.00	 0.00	 0.0	 0.0	 1	    1.02811	  -14.06611	 400.0	 1	    1.05000	    0.95000;
	21	 1	 0.00	 0.00	 0.0	 0.0	 1	    1.03176	  -12.83671	 400.0	 1	    1.05000	    0.95000;
	22	 2	 11.81	 20.00	 0.0	 0.0	 1	    1.04236	   -5.12944	 220.0	 1	    1.11000	    0.95000;
	23	 2	 11.81	 20.00	 0.0	 0.0	 1	    1.04265	   -5.12123	 220.0	 1	    1.11000	    0.95000;
	24	 1	 0.00	 0.00	 0.0	 0.0	 1	    1.08444	   -4.29939	 220.0	 1	    1.11000	    0.95000;
	25	 1	 0.00	 0.00	 0.0	 0.0	 1	    1.08443	   -4.30833	 220.0	 1	    1.11000	    0.95000;
	26	 1	 0.00	 0.00	 0.0	 0.0	 1	    1.03883	  -12.52962	 220.0	 1	    1.11000	    0.95000;
	27	 1	 0.00	 0.00	 0.0	 0.0	 1	    1.03888	  -12.53366	 220.0	 1	    1.11000	    0.95000;
	28	 1	 0.00	 0.00	 0.0	 0.0	 1	    1.05095	  -11.97763	 220.0	 1	    1.11000	    0.95000;
	29	 1	 0.00	 0.00	 0.0	 0.0	 1	    1.05088	  -11.98327	 220.0	 1	    1.11000	    0.95000;
	30	 1	 0.00	 0.00	 0.0	 0.0	 1	    1.09362	   -2.44311	 220.0	 1	    1.11000	    0.95000;
	31	 1	 0.00	 0.00	 0.0	 0.0	 1	    1.09353	   -2.45281	 220.0	 1	    1.11000	    0.95000;
	32	 1	 0.00	 0.00	 0.0	 0.0	 1	    1.03836	  -10.72521	 400.0	 1	    1.05000	    0.95000;
	33	 1	 0.00	 0.00	 0.0	 0.0	 1	    1.03834	  -10.72761	 400.0	 1	    1.05000	    0.95000;
	34	 1	 0.00	 0.00	 0.0	 0.0	 1	    1.03237	  -12.24418	 400.0	 1	    1.05000	    0.95000;
	35	 2	 37.97	 52.07	 0.0	 0.0	 1	    1.08370	   -2.64797	 220.0	 1	    1.11000	    0.95000;
	36	 2	 54.74	 92.07	 0.0	 0.0	 1	    1.11000	   -0.07219	 220.0	 1	    1.11000	    0.95000;
	37	 3	 70.85	 120.00	 0.0	 0.0	 1	    1.04994	    0.00000	 400.0	 1	    1.05000	    0.95000;
	38	 2	 70.85	 120.00	 0.0	 0.0	 1	    1.05000	    0.01812	 400.0	 1	    1.05000	    0.95000;
	39	 1	 0.00	 0.00	 0.0	 0.0	 1	    1.04047	  -12.77283	 220.0	 1	    1.11000	    0.95000;
	40	 1	 0.00	 0.00	 0.0	 0.0	 1	    1.04040	  -12.77933	 220.0	 1	    1.11000	    0.95000;
	41	 1	 0.00	 0.00	 0.0	 0.0	 1	    1.04791	   -2.63675	 400.0	 1	    1.05000	    0.95000;
	42	 1	 0.00	 0.00	 0.0	 0.0	 1	    1.04790	   -2.63984	 400.0	 1	    1.05000	    0.95000;
	43	 1	 0.00	 0.00	 0.0	 0.0	 1	    1.04453	  -12.13573	 220.0	 1	    1.11000	    0.95000;
	44	 1	 0.00	 0.00	 0.0	 0.0	 1	    1.03186	  -12.83719	 400.0	 1	    1.05000	    0.95000;
	45	 1	 0.00	 0.00	 0.0	 0.0	 1	    1.07187	   -6.07920	 220.0	 1	    1.11000	    0.95000;
	46	 1	 0.00	 0.00	 0.0	 0.0	 1	    1.07191	   -6.08012	 220.0	 1	    1.11000	    0.95000;
	47	 1	 0.00	 0.00	 0.0	 0.0	 1	    1.08746	  -10.30774	 220.0	 2	    1.11000	    0.95000;
	48	 1	 0.00	 0.00	 0.0	 0.0	 1	    1.09359	   -8.56905	 220.0	 2	    1.11000	    0.95000;
	49	 1	 0.00	 0.00	 0.0	 0.0	 1	    1.10599	   -7.63003	 220.0	 2	    1.11000	    0.95000;
	50	 1	 0.00	 0.00	 0.0	 0.0	 1	    1.10597	   -7.63413	 220.0	 2	    1.11000	    0.95000;
	51	 1	 0.00	 0.00	 0.0	 0.0	 1	    1.05434	  -13.82593	 220.0	 2	    1.11000	    0.95000;
	52	 1	 4.69	 1.00	 0.0	 0.0	 1	    1.09545	   -7.94942	 220.0	 2	    1.11000	    0.95000;
	53	 1	 0.00	 0.00	 0.0	 0.0	 1	    1.09553	   -7.94591	 220.0	 2	    1.11000	    0.95000;
	54	 1	 0.00	 0.00	 0.0	 0.0	 1	    1.03234	   -6.79124	 400.0	 2	    1.05000	    0.95000;
	55	 2	 15.35	 30.00	 0.0	 0.0	 1	    1.09899	   -7.96933	 220.0	 2	    1.11000	    0.95000;
	56	 2	 46.46	 90.07	 0.0	 0.0	 1	    1.09889	   -7.96675	 220.0	 2	    1.11000	    0.95000;
	57	 2	 30.70	 60.00	 0.0	 0.0	 1	    1.09901	   -7.96773	 220.0	 2	    1.11000	    0.95000;
	58	 2	 30.70	 50.00	 0.0	 0.0	 1	    1.05000	   -7.47395	 400.0	 2	    1.05000	    0.95000;
	59	 2	 30.70	 50.00	 0.0	 0.0	 1	    1.04999	   -7.47739	 400.0	 2	    1.05000	    0.95000;
	60	 1	 0.00	 0.00	 0.0	 0.0	 1	    1.08951	   -8.63239	 220.0	 2	    1.11000	    0.95000;
	61	 1	 0.00	 0.00	 0.0	 0.0	 1	    1.04542	   -5.82984	 400.0	 2	    1.05000	    0.95000;
	62	 1	 0.00	 0.00	 0.0	 0.0	 1	    1.04541	   -5.83164	 400.0	 2	    1.05000	    0.95000;
	63	 1	 0.00	 0.00	 0.0	 0.0	 1	    1.04455	   -9.08533	 400.0	 2	    1.05000	    0.95000;
	64	 1	 0.00	 0.00	 0.0	 0.0	 1	    1.06571	  -12.55095	 220.0	 2	    1.11000	    0.95000;
	65	 1	 0.00	 0.00	 0.0	 0.0	 1	    1.06569	  -12.55575	 220.0	 2	    1.11000	    0.95000;
	66	 1	 0.00	 0.00	 0.0	 0.0	 1	    1.04359	   -7.06834	 400.0	 2	    1.05000	    0.95000;
	67	 1	 0.00	 0.00	 0.0	 0.0	 1	    1.04358	   -7.06451	 400.0	 2	    1.05000	    0.95000;
	68	 2	 15.35	 30.00	 0.0	 0.0	 1	    1.11000	   -7.10459	 220.0	 2	    1.11000	    0.95000;
	69	 2	 30.70	 60.00	 0.0	 0.0	 1	    1.10995	   -7.10745	 220.0	 2	    1.11000	    0.95000;
	70	 2	 0.00	 2.25	 0.0	 0.0	 1	    1.04223	   -5.44701	 400.0	 2	    1.05000	    0.95000;
	71	 2	 30.70	 60.00	 0.0	 0.0	 1	    1.04228	   -5.43901	 400.0	 2	    1.05000	    0.95000;
	72	 1	 0.00	 0.00	 0.0	 0.0	 1	    1.10095	   -7.85994	 220.0	 2	    1.11000	    0.95000;
	73	 1	 0.00	 0.00	 0.0	 0.0	 1	    1.10092	   -7.86613	 220.0	 2	    1.11000	    0.95000;
	74	 1	 0.00	 0.00	 0.0	 0.0	 1	    1.09173	   -8.78177	 220.0	 2	    1.11000	    0.95000;
	75	 1	 0.00	 0.00	 0.0	 0.0	 1	    1.09172	   -8.77970	 220.0	 2	    1.11000	    0.95000;
	76	 1	 0.00	 0.00	 0.0	 0.0	 1	    1.09506	   -8.85863	 220.0	 2	    1.11000	    0.95000;
	77	 1	 0.00	 0.00	 0.0	 0.0	 1	    1.09507	   -8.85838	 220.0	 2	    1.11000	    0.95000;
	78	 1	 0.00	 0.00	 0.0	 0.0	 1	    1.05000	   -6.03275	 400.0	 2	    1.05000	    0.95000;
	79	 1	 0.00	 0.00	 0.0	 0.0	 1	    1.04998	   -6.03447	 400.0	 2	    1.05000	    0.95000;
	80	 1	 0.00	 0.00	 0.0	 0.0	 1	    1.10351	   -7.28536	 220.0	 2	    1.11000	    0.95000;
	81	 1	 0.00	 0.00	 0.0	 0.0	 1	    1.10303	   -7.67354	 220.0	 2	    1.11000	    0.95000;
	82	 1	 0.00	 0.00	 0.0	 0.0	 1	    1.06677	  -12.51287	 220.0	 2	    1.11000	    0.95000;
	83	 1	 0.00	 0.00	 0.0	 0.0	 1	    1.08397	   -5.16043	 220.0	 3	    1.11000	    0.95000;
	84	 1	 7.57	 2.01	 0.0	 0.0	 1	    1.09598	   -8.62135	 220.0	 3	    1.11000	    0.95000;
	85	 1	 16.40	 5.02	 0.0	 0.0	 1	    1.09576	   -8.63832	 220.0	 3	    1.11000	    0.95000;
	86	 1	 0.00	 0.00	 0.0	 0.0	 1	    1.06229	   -6.68995	 220.0	 3	    1.11000	    0.95000;
	87	 1	 0.00	 0.00	 0.0	 0.0	 1	    1.06246	   -6.67665	 220.0	 3	    1.11000	    0.95000;
	88	 1	 0.00	 0.00	 0.0	 0.0	 1	    1.09107	   -5.01704	 220.0	 3	    1.11000	    0.95000;
	89	 1	 0.00	 0.00	 0.0	 0.0	 1	    1.09100	   -5.01712	 220.0	 3	    1.11000	    0.95000;
	90	 1	 0.00	 0.00	 0.0	 0.0	 1	    1.02889	   -8.74319	 220.0	 3	    1.11000	    0.95000;
	91	 1	 0.00	 0.00	 0.0	 0.0	 1	    1.02866	   -8.74551	 220.0	 3	    1.11000	    0.95000;
	92	 2	 33.06	 70.00	 0.0	 0.0	 1	    1.07989	   -5.34713	 220.0	 3	    1.11000	    0.95000;
	93	 2	 33.06	 68.00	 0.0	 0.0	 1	    1.07368	   -5.27830	 220.0	 3	    1.11000	    0.95000;
	94	 1	 3.28	 1.91	 0.0	 0.0	 1	    1.06664	   -6.38591	 220.0	 3	    1.11000	    0.95000;
	95	 1	 0.00	 0.00	 0.0	 0.0	 1	    1.06659	   -6.38655	 220.0	 3	    1.11000	    0.95000;
	96	 2	 37.78	 142.00	 0.0	 0.0	 1	    1.04190	   -3.37958	 400.0	 3	    1.05000	    0.95000;
	97	 1	 0.00	 0.00	 0.0	 0.0	 1	    1.04197	   -3.38631	 400.0	 3	    1.05000	    0.95000;
	98	 1	 0.00	 0.00	 0.0	 0.0	 1	    1.06343	   -8.02458	 220.0	 3	    1.11000	    0.95000;
	99	 1	 0.00	 0.00	 0.0	 0.0	 1	    1.06584	   -5.74473	 220.0	 3	    1.11000	    0.95000;
	100	 1	 0.00	 0.00	 0.0	 0.0	 1	    1.06573	   -5.74560	 220.0	 3	    1.11000	    0.95000;
	101	 1	 38.80	 -2.70	 0.0	 0.0	 1	    1.08663	   -5.07780	 220.0	 3	    1.11000	    0.95000;
	102	 1	 0.00	 0.00	 0.0	 0.0	 1	    1.08659	   -5.08356	 220.0	 3	    1.11000	    0.95000;
	103	 1	 0.00	 0.00	 0.0	 0.0	 1	    1.07845	   -5.44064	 220.0	 3	    1.11000	    0.95000;
	104	 1	 0.00	 0.00	 0.0	 0.0	 1	    1.07836	   -5.45156	 220.0	 3	    1.11000	    0.95000;
	105	 1	 0.00	 0.00	 0.0	 0.0	 1	    1.08864	   -4.62090	 220.0	 3	    1.11000	    0.95000;
	106	 1	 0.00	 0.00	 0.0	 0.0	 1	    1.08870	   -4.61937	 220.0	 3	    1.11000	    0.95000;
	107	 1	 0.00	 0.00	 0.0	 0.0	 1	    1.04796	   -2.66584	 400.0	 3	    1.05000	    0.95000;
	108	 1	 0.00	 0.00	 0.0	 0.0	 1	    1.04797	   -2.66113	 400.0	 3	    1.05000	    0.95000;
	109	 1	 0.00	 0.00	 0.0	 0.0	 1	    1.07240	   -5.64249	 220.0	 3	    1.11000	    0.95000;
	110	 1	 0.00	 0.00	 0.0	 0.0	 1	    1.07221	   -5.64548	 220.0	 3	    1.11000	    0.95000;
	111	 1	 0.00	 0.00	 0.0	 0.0	 1	    1.07760	   -6.03372	 220.0	 3	    1.11000	    0.95000;
	112	 1	 0.00	 0.00	 0.0	 0.0	 1	    1.07754	   -6.04376	 220.0	 3	    1.11000	    0.95000;
	113	 2	 45.35	 12.71	 0.0	 0.0	 1	    1.08115	   -6.17615	 220.0	 3	    1.11000	    0.95000;
	114	 1	 0.00	 0.00	 0.0	 0.0	 1	    1.08117	   -6.17865	 220.0	 3	    1.11000	    0.95000;
	115	 1	 0.00	 0.00	 0.0	 0.0	 1	    1.09609	   -8.60187	 220.0	 3	    1.11000	    0.95000;
	116	 1	 0.00	 0.00	 0.0	 0.0	 1	    1.09610	   -8.60432	 220.0	 3	    1.11000	    0.95000;
	117	 1	 0.00	 0.00	 0.0	 0.0	 1	    1.01596	   -8.83519	 220.0	 3	    1.11000	    0.95000;
	118	 1	 0.00	 0.00	 0.0	 0.0	 1	    1.01588	   -8.83256	 220.0	 3	    1.11000	    0.95000;
	119	 2	 11.81	 44.00	 0.0	 0.0	 1	    1.07549	   -5.59269	 220.0	 3	    1.11000	    0.95000;
	120	 2	 11.81	 44.00	 0.0	 0.0	 1	    1.07529	   -5.62283	 220.0	 3	    1.11000	    0.95000;
	121	 2	 8.27	 18.00	 0.0	 0.0	 1	    1.08725	   -4.68928	 220.0	 3	    1.11000	    0.95000;
	122	 2	 9.45	 21.00	 0.0	 0.0	 1	    1.08715	   -4.66506	 220.0	 3	    1.11000	    0.95000;
	123	 1	 0.00	 0.00	 0.0	 0.0	 1	    1.08273	   -6.45482	 220.0	 3	    1.11000	    0.95000;
	124	 1	 70.14	 11.61	 0.0	 0.0	 1	    1.08273	   -6.46318	 220.0	 3	    1.11000	    0.95000;
	125	 1	 0.00	 0.00	 0.0	 0.0	 1	    1.04444	   -8.63245	 220.0	 3	    1.11000	    0.95000;
	126	 1	 0.00	 0.00	 0.0	 0.0	 1	    1.07616	   -6.23121	 220.0	 3	    1.11000	    0.95000;
	127	 1	 0.00	 0.00	 0.0	 0.0	 1	    1.07612	   -6.23224	 220.0	 3	    1.11000	    0.95000;
	128	 1	 0.00	 0.00	 0.0	 0.0	 1	    1.06293	   -6.42035	 220.0	 3	    1.11000	    0.95000;
	129	 1	 0.00	 0.00	 0.0	 0.0	 1	    1.06305	   -6.41182	 220.0	 3	    1.11000	    0.95000;
	130	 1	 0.00	 0.00	 0.0	 0.0	 1	    1.03806	   -4.36859	 400.0	 3	    1.05000	    0.95000;
	131	 1	 0.00	 0.00	 0.0	 0.0	 1	    1.03806	   -4.36859	 400.0	 3	    1.05000	    0.95000;
	132	 2	 0.00	 1.78	 0.0	 0.0	 1	    1.08409	   -6.11959	 220.0	 3	    1.11000	    0.95000;
	133	 2	 10.63	 20.00	 0.0	 0.0	 1	    1.08422	   -6.12132	 220.0	 3	    1.11000	    0.95000;
	134	 2	 7.08	 15.00	 0.0	 0.0	 1	    1.06768	   -6.85447	 220.0	 3	    1.11000	    0.95000;
	135	 1	 0.00	 0.00	 0.0	 0.0	 1	    1.06764	   -6.86414	 220.0	 3	    1.11000	    0.95000;
	136	 1	 0.00	 0.00	 0.0	 0.0	 1	    1.04834	   -6.02787	 400.0	 3	    1.05000	    0.95000;
	137	 1	 0.00	 0.00	 0.0	 0.0	 1	    1.04838	   -6.02504	 400.0	 3	    1.05000	    0.95000;
	138	 1	 0.00	 0.00	 0.0	 0.0	 1	    1.04940	   -4.60843	 400.0	 3	    1.05000	    0.95000;
	139	 1	 0.00	 0.00	 0.0	 0.0	 1	    1.04944	   -4.60458	 400.0	 3	    1.05000	    0.95000;
	140	 1	 0.00	 0.00	 0.0	 0.0	 1	    1.03859	   -8.78115	 220.0	 3	    1.11000	    0.95000;
	141	 1	 0.00	 0.00	 0.0	 0.0	 1	    1.03866	   -8.77334	 220.0	 3	    1.11000	    0.95000;
	142	 2	 21.49	 37.21	 0.0	 0.0	 1	    1.10977	   -4.92943	 220.0	 3	    1.11000	    0.95000;
	143	 2	 49.03	 73.01	 0.0	 0.0	 1	    1.11000	   -4.92075	 220.0	 3	    1.11000	    0.95000;
	144	 2	 33.06	 66.00	 0.0	 0.0	 1	    1.03914	   -3.06250	 400.0	 3	    1.05000	    0.95000;
	145	 1	 0.00	 0.00	 0.0	 0.0	 1	    1.03915	   -3.07494	 400.0	 3	    1.05000	    0.95000;
	146	 1	 0.00	 0.00	 0.0	 0.0	 1	    1.08581	   -5.19678	 220.0	 3	    1.11000	    0.95000;
	147	 1	 0.00	 0.00	 0.0	 0.0	 1	    1.08584	   -5.19310	 220.0	 3	    1.11000	    0.95000;
	148	 1	 0.00	 0.00	 0.0	 0.0	 1	    1.07031	   -5.48863	 220.0	 3	    1.11000	    0.95000;
	149	 1	 0.00	 0.00	 0.0	 0.0	 1	    1.08726	   -4.90101	 220.0	 3	    1.11000	    0.95000;
	150	 2	 0.00	 -0.79	 0.0	 0.0	 1	    1.02897	   -8.74378	 220.0	 3	    1.11000	    0.95000;
	151	 2	 0.00	 -0.79	 0.0	 0.0	 1	    1.02873	   -8.74611	 220.0	 3	    1.11000	    0.95000;
	152	 2	 9.09	 20.00	 0.0	 0.0	 1	    1.08258	   -6.40903	 220.0	 4	    1.11000	    0.95000;
	153	 2	 9.21	 20.00	 0.0	 0.0	 1	    1.08257	   -6.41239	 220.0	 4	    1.11000	    0.95000;
	154	 1	 0.00	 0.00	 0.0	 0.0	 1	    1.04876	   -9.10461	 220.0	 4	    1.11000	    0.95000;
	155	 1	 0.00	 0.00	 0.0	 0.0	 1	    1.04878	   -9.10970	 220.0	 4	    1.11000	    0.95000;
	156	 1	 0.00	 0.00	 0.0	 0.0	 1	    1.03017	  -11.20129	 220.0	 4	    1.11000	    0.95000;
	157	 1	 0.00	 0.00	 0.0	 0.0	 1	    1.05401	   -7.86346	 220.0	 4	    1.11000	    0.95000;
	158	 1	 0.00	 0.00	 0.0	 0.0	 1	    1.05399	   -7.87026	 220.0	 4	    1.11000	    0.95000;
	159	 1	 0.00	 0.00	 0.0	 0.0	 1	    1.02939	   -5.96361	 400.0	 4	    1.05000	    0.95000;
	160	 1	 0.00	 0.00	 0.0	 0.0	 1	    1.02939	   -5.96705	 400.0	 4	    1.05000	    0.95000;
	161	 1	 0.00	 0.00	 0.0	 0.0	 1	    1.04485	  -11.98758	 220.0	 4	    1.11000	    0.95000;
	162	 1	 0.00	 0.00	 0.0	 0.0	 1	    1.08132	  -16.00677	 220.0	 4	    1.11000	    0.95000;
	163	 1	 0.00	 0.00	 0.0	 0.0	 1	    1.08132	  -16.00677	 220.0	 4	    1.11000	    0.95000;
	164	 1	 0.00	 0.00	 0.0	 0.0	 1	    1.06555	  -11.37318	 220.0	 4	    1.11000	    0.95000;
	165	 1	 0.00	 0.00	 0.0	 0.0	 1	    1.06555	  -11.37318	 220.0	 4	    1.11000	    0.95000;
	166	 1	 0.00	 0.00	 0.0	 0.0	 1	    1.02734	  -11.47846	 220.0	 4	    1.11000	    0.95000;
	167	 2	 0.00	 -13.01	 0.0	 0.0	 1	    1.07366	   -9.01183	 220.0	 4	    1.11000	    0.95000;
	168	 1	 0.00	 0.00	 0.0	 0.0	 1	    1.07373	   -9.01291	 220.0	 4	    1.11000	    0.95000;
	169	 2	 14.17	 30.00	 0.0	 0.0	 1	    1.08876	  -16.47275	 220.0	 4	    1.11000	    0.95000;
	170	 2	 23.51	 36.57	 0.0	 0.0	 1	    1.08897	  -16.45829	 220.0	 4	    1.11000	    0.95000;
	171	 2	 14.17	 30.00	 0.0	 0.0	 1	    1.02746	  -15.42449	 400.0	 4	    1.05000	    0.95000;
	172	 2	 14.17	 30.00	 0.0	 0.0	 1	    1.02751	  -15.41723	 400.0	 4	    1.05000	    0.95000;
	173	 1	 0.00	 0.00	 0.0	 0.0	 1	    1.01073	  -12.45564	 220.0	 4	    1.11000	    0.95000;
	174	 1	 0.00	 0.00	 0.0	 0.0	 1	    1.01079	  -12.45651	 220.0	 4	    1.11000	    0.95000;
	175	 1	 0.00	 0.00	 0.0	 0.0	 1	    1.02496	  -12.32322	 220.0	 4	    1.11000	    0.95000;
	176	 1	 0.00	 0.00	 0.0	 0.0	 1	    1.02507	  -12.31129	 220.0	 4	    1.11000	    0.95000;
	177	 2	 36.01	 64.20	 0.0	 0.0	 1	    1.05125	   -6.00722	 220.0	 4	    1.11000	    0.95000;
	178	 2	 69.55	 96.00	 0.0	 0.0	 1	    1.05099	   -6.00423	 220.0	 4	    1.11000	    0.95000;
	179	 1	 0.00	 0.00	 0.0	 0.0	 1	    1.05099	   -6.00423	 220.0	 4	    1.11000	    0.95000;
	180	 2	 31.29	 64.20	 0.0	 0.0	 1	    1.02747	   -2.49095	 400.0	 4	    1.05000	    0.95000;
	181	 1	 0.00	 0.00	 0.0	 0.0	 1	    1.02741	   -2.48820	 400.0	 4	    1.05000	    0.95000;
	182	 1	 0.00	 0.00	 0.0	 0.0	 1	    1.07904	  -16.58567	 220.0	 4	    1.11000	    0.95000;
	183	 1	 0.00	 0.00	 0.0	 0.0	 1	    1.07904	  -16.58567	 220.0	 4	    1.11000	    0.95000;
	184	 1	 0.00	 0.00	 0.0	 0.0	 1	    1.03750	   -4.52927	 400.0	 4	    1.05000	    0.95000;
	185	 1	 0.00	 0.00	 0.0	 0.0	 1	    1.01767	   -8.88950	 400.0	 4	    1.05000	    0.95000;
	186	 1	 0.00	 0.00	 0.0	 0.0	 1	    1.03460	   -5.62804	 400.0	 4	    1.05000	    0.95000;
	187	 1	 0.00	 0.00	 0.0	 0.0	 1	    1.03463	   -5.62232	 400.0	 4	    1.05000	    0.95000;
	188	 2	 14.17	 30.00	 0.0	 0.0	 1	    1.07463	   -9.00769	 220.0	 4	    1.11000	    0.95000;
	189	 2	 28.10	 60.00	 0.0	 0.0	 1	    1.07463	   -9.00995	 220.0	 4	    1.11000	    0.95000;
	190	 2	 44.87	 64.00	 0.0	 0.0	 1	    0.98157	   -3.84370	 400.0	 4	    1.05000	    0.95000;
	191	 1	 0.00	 0.00	 0.0	 0.0	 1	    1.03330	  -18.77769	 220.0	 4	    1.11000	    0.95000;
	192	 1	 0.00	 0.00	 0.0	 0.0	 1	    1.03333	  -18.78936	 220.0	 4	    1.11000	    0.95000;
	193	 1	 0.00	 0.00	 0.0	 0.0	 1	    1.08358	  -15.64342	 220.0	 4	    1.11000	    0.95000;
	194	 1	 0.00	 0.00	 0.0	 0.0	 1	    1.08360	  -15.64009	 220.0	 4	    1.11000	    0.95000;
	195	 1	 0.00	 0.00	 0.0	 0.0	 1	    1.04668	  -12.32742	 220.0	 4	    1.11000	    0.95000;
	196	 1	 0.00	 0.00	 0.0	 0.0	 1	    1.04654	  -12.33869	 220.0	 4	    1.11000	    0.95000;
	197	 1	 0.00	 0.00	 0.0	 0.0	 1	    1.00760	  -10.50184	 400.0	 4	    1.05000	    0.95000;
	198	 1	 0.00	 0.00	 0.0	 0.0	 1	    1.01798	  -11.65120	 220.0	 4	    1.11000	    0.95000;
	199	 1	 0.00	 0.00	 0.0	 0.0	 1	    1.01796	  -11.64830	 220.0	 4	    1.11000	    0.95000;
	200	 1	 0.00	 0.00	 0.0	 0.0	 1	    1.03970	  -12.50681	 220.0	 4	    1.11000	    0.95000;
	201	 1	 0.00	 0.00	 0.0	 0.0	 1	    1.04817	   -9.21182	 220.0	 4	    1.11000	    0.95000;
	202	 1	 0.00	 0.00	 0.0	 0.0	 1	    1.04812	   -9.21536	 220.0	 4	    1.11000	    0.95000;
	203	 1	 0.00	 0.00	 0.0	 0.0	 1	    1.05533	   -9.40992	 220.0	 4	    1.11000	    0.95000;
	204	 2	 0.00	 -7.17	 0.0	 0.0	 1	    1.02634	  -12.33365	 220.0	 4	    1.11000	    0.95000;
	205	 1	 0.00	 0.00	 0.0	 0.0	 1	    1.00974	  -12.72328	 220.0	 4	    1.11000	    0.95000;
	206	 1	 0.00	 0.00	 0.0	 0.0	 1	    1.00976	  -12.71667	 220.0	 4	    1.11000	    0.95000;
	207	 1	 0.00	 0.00	 0.0	 0.0	 1	    1.03975	  -18.59446	 220.0	 5	    1.11000	    0.95000;
	208	 1	 0.00	 0.00	 0.0	 0.0	 1	    1.09384	  -19.90549	 220.0	 5	    1.11000	    0.95000;
	209	 1	 0.00	 0.00	 0.0	 0.0	 1	    1.03370	  -19.18117	 400.0	 5	    1.05000	    0.95000;
	210	 1	 0.00	 0.00	 0.0	 0.0	 1	    1.03373	  -19.17633	 400.0	 5	    1.05000	    0.95000;
	211	 1	 0.00	 0.00	 0.0	 0.0	 1	    1.02104	  -20.26398	 400.0	 5	    1.05000	    0.95000;
	212	 1	 0.00	 0.00	 0.0	 0.0	 1	    1.02102	  -20.26735	 400.0	 5	    1.05000	    0.95000;
	213	 1	 0.00	 0.00	 0.0	 0.0	 1	    1.01675	  -22.63040	 400.0	 5	    1.05000	    0.95000;
	214	 1	 0.00	 0.00	 0.0	 0.0	 1	    1.02578	  -21.78757	 220.0	 5	    1.11000	    0.95000;
	215	 1	 0.00	 0.00	 0.0	 0.0	 1	    1.02577	  -21.79258	 220.0	 5	    1.11000	    0.95000;
	216	 1	 0.00	 0.00	 0.0	 0.0	 1	    1.06277	  -18.78304	 220.0	 5	    1.11000	    0.95000;
	217	 1	 0.00	 0.00	 0.0	 0.0	 1	    1.06267	  -18.78467	 220.0	 5	    1.11000	    0.95000;
	218	 1	 0.00	 0.00	 0.0	 0.0	 1	    1.01870	  -17.15063	 400.0	 5	    1.05000	    0.95000;
	219	 1	 0.00	 0.00	 0.0	 0.0	 1	    1.01870	  -17.15063	 400.0	 5	    1.05000	    0.95000;
	220	 1	 0.00	 0.00	 0.0	 0.0	 1	    1.04123	  -20.93661	 400.0	 5	    1.05000	    0.95000;
	221	 1	 0.00	 0.00	 0.0	 0.0	 1	    1.04622	  -17.62015	 220.0	 5	    1.11000	    0.95000;
	222	 1	 0.00	 0.00	 0.0	 0.0	 1	    1.04620	  -17.62591	 220.0	 5	    1.11000	    0.95000;
	223	 1	 0.00	 0.00	 0.0	 0.0	 1	    1.05692	  -21.79202	 220.0	 5	    1.11000	    0.95000;
	224	 1	 0.00	 0.00	 0.0	 0.0	 1	    1.05031	  -18.58285	 220.0	 5	    1.11000	    0.95000;
	225	 1	 0.00	 0.00	 0.0	 0.0	 1	    1.02019	  -19.71934	 400.0	 5	    1.05000	    0.95000;
	226	 1	 0.00	 0.00	 0.0	 0.0	 1	    1.02016	  -19.71633	 400.0	 5	    1.05000	    0.95000;
	227	 1	 0.00	 0.00	 0.0	 0.0	 1	    1.03238	  -21.11354	 400.0	 5	    1.05000	    0.95000;
	228	 1	 0.00	 0.00	 0.0	 0.0	 1	    1.04305	  -17.92375	 220.0	 5	    1.11000	    0.95000;
	229	 1	 0.00	 0.00	 0.0	 0.0	 1	    1.04307	  -17.91680	 220.0	 5	    1.11000	    0.95000;
	230	 1	 0.00	 0.00	 0.0	 70.0	 1	    1.03700	  -20.06095	 400.0	 5	    1.05000	    0.95000;
	231	 1	 0.00	 0.00	 0.0	 0.0	 1	    1.03700	  -20.05760	 400.0	 5	    1.05000	    0.95000;
	232	 1	 0.00	 0.00	 0.0	 0.0	 1	    1.03295	  -19.29936	 220.0	 5	    1.11000	    0.95000;
	233	 1	 0.00	 0.00	 0.0	 0.0	 1	    1.03289	  -19.29536	 220.0	 5	    1.11000	    0.95000;
	234	 1	 0.00	 0.00	 0.0	 0.0	 1	    1.03565	  -16.37992	 220.0	 5	    1.11000	    0.95000;
	235	 1	 0.00	 0.00	 0.0	 0.0	 1	    1.03559	  -16.39655	 220.0	 5	    1.11000	    0.95000;
	236	 2	 12.99	 40.00	 0.0	 0.0	 1	    1.01938	  -20.66078	 400.0	 5	    1.05000	    0.95000;
	237	 2	 5.90	 10.00	 0.0	 0.0	 1	    1.01935	  -20.66597	 400.0	 5	    1.05000	    0.95000;
	238	 1	 0.00	 0.00	 0.0	 0.0	 1	    1.06439	  -20.73573	 220.0	 5	    1.11000	    0.95000;
	239	 1	 0.00	 0.00	 0.0	 0.0	 1	    1.06446	  -20.73646	 220.0	 5	    1.11000	    0.95000;
	240	 2	 9.45	 20.00	 0.0	 0.0	 0	    1.07502	  -10.51464	 220.0	 0	    1.11000	    0.95000;
	241	 1	 11.64	 2.00	 0.0	 0.0	 1	    1.06215	  -20.35456	 110.0	 1	    1.12000	    0.95000;
	242	 1	 6.41	 0.00	 0.0	 0.0	 1	    1.06056	  -21.26928	 110.0	 1	    1.12000	    0.95000;
	243	 1	 11.06	 0.60	 0.0	 0.0	 1	    1.06060	  -21.27382	 110.0	 1	    1.12000	    0.95000;
	244	 1	 8.56	 4.00	 0.0	 0.0	 1	    1.10419	  -14.09755	 110.0	 1	    1.12000	    0.95000;
	245	 1	 0.00	 0.00	 0.0	 0.0	 1	    1.10416	  -14.11385	 110.0	 1	    1.12000	    0.95000;
	246	 1	 2.57	 2.40	 0.0	 0.0	 1	    1.04987	  -17.27405	 110.0	 1	    1.12000	    0.95000;
	247	 1	 6.05	 4.91	 0.0	 0.0	 1	    1.04983	  -17.27649	 110.0	 1	    1.12000	    0.95000;
	248	 1	 4.31	 0.90	 0.0	 0.0	 1	    1.09873	   -0.34518	 110.0	 1	    1.12000	    0.95000;
	249	 1	 4.55	 1.00	 0.0	 0.0	 1	    1.08828	   -4.02512	 110.0	 1	    1.12000	    0.95000;
	250	 2	 4.44	 -1.76	 0.0	 0.0	 1	    1.10639	  -19.51879	 110.0	 1	    1.12000	    0.95000;
	251	 2	 2.50	 0.00	 0.0	 0.0	 1	    1.10664	  -19.52410	 110.0	 1	    1.12000	    0.95000;
	252	 1	 20.97	 1.20	 0.0	 0.0	 1	    1.10635	  -19.40728	 110.0	 1	    1.12000	    0.95000;
	253	 1	 14.56	 2.10	 0.0	 0.0	 1	    1.10505	  -19.19178	 110.0	 1	    1.12000	    0.95000;
	254	 1	 8.75	 0.99	 0.0	 0.0	 1	    1.10503	  -19.19944	 110.0	 1	    1.12000	    0.95000;
	255	 1	 4.93	 0.00	 0.0	 0.0	 1	    1.10669	  -19.04812	 110.0	 1	    1.12000	    0.95000;
	256	 1	 4.93	 0.00	 0.0	 0.0	 1	    1.10664	  -19.06259	 110.0	 1	    1.12000	    0.95000;
	257	 1	 17.48	 2.50	 0.0	 0.0	 1	    1.10529	  -19.21503	 110.0	 1	    1.12000	    0.95000;
	258	 1	 6.40	 1.10	 0.0	 0.0	 1	    1.10615	  -19.46468	 110.0	 1	    1.12000	    0.95000;
	259	 1	 5.24	 1.00	 0.0	 0.0	 1	    1.10616	  -19.46844	 110.0	 1	    1.12000	    0.95000;
	260	 1	 3.50	 0.50	 0.0	 0.0	 1	    1.10415	  -19.38670	 110.0	 1	    1.12000	    0.95000;
	261	 1	 6.40	 0.60	 0.0	 0.0	 1	    1.10417	  -19.38752	 110.0	 1	    1.12000	    0.95000;
	262	 1	 0.00	 0.00	 0.0	 0.0	 1	    1.10600	  -19.40566	 110.0	 1	    1.12000	    0.95000;
	263	 1	 3.50	 0.90	 0.0	 0.0	 1	    1.06812	  -17.52438	 110.0	 1	    1.12000	    0.95000;
	264	 1	 6.29	 1.50	 0.0	 0.0	 1	    1.06822	  -17.51882	 110.0	 1	    1.12000	    0.95000;
	265	 1	 4.07	 0.70	 0.0	 0.0	 1	    1.09816	  -13.85516	 110.0	 1	    1.12000	    0.95000;
	266	 1	 4.07	 0.70	 0.0	 0.0	 1	    1.09813	  -13.85927	 110.0	 1	    1.12000	    0.95000;
	267	 2	 5.12	 1.80	 0.0	 0.0	 1	    1.11083	   -9.05253	 110.0	 1	    1.12000	    0.95000;
	268	 2	 5.12	 1.80	 0.0	 0.0	 1	    1.10008	   -7.55542	 110.0	 1	    1.12000	    0.95000;
	269	 1	 7.38	 2.00	 0.0	 0.0	 1	    1.09016	  -16.17930	 110.0	 1	    1.12000	    0.95000;
	270	 1	 7.90	 3.00	 0.0	 0.0	 1	    1.09016	  -16.18627	 110.0	 1	    1.12000	    0.95000;
	271	 1	 0.58	 0.20	 0.0	 0.0	 1	    1.11227	    2.43375	 110.0	 1	    1.12000	    0.95000;
	272	 1	 0.93	 0.20	 0.0	 0.0	 1	    1.11228	    2.46789	 110.0	 1	    1.12000	    0.95000;
	273	 1	 1.18	 -0.90	 0.0	 0.0	 1	    1.09687	   -0.48422	 110.0	 1	    1.12000	    0.95000;
	274	 1	 5.60	 0.50	 0.0	 0.0	 1	    1.09410	  -16.35110	 110.0	 1	    1.12000	    0.95000;
	275	 1	 0.00	 0.00	 0.0	 0.0	 1	    1.09406	  -16.37067	 110.0	 1	    1.12000	    0.95000;
	276	 1	 3.73	 0.10	 0.0	 0.0	 1	    1.07297	  -17.02981	 110.0	 1	    1.12000	    0.95000;
	277	 1	 8.74	 1.30	 0.0	 0.0	 1	    1.08537	  -20.16887	 110.0	 1	    1.12000	    0.95000;
	278	 1	 12.23	 1.30	 0.0	 0.0	 1	    1.08528	  -20.17648	 110.0	 1	    1.12000	    0.95000;
	279	 1	 2.68	 1.11	 0.0	 0.0	 1	    1.11243	   -7.98566	 110.0	 1	    1.12000	    0.95000;
	280	 1	 6.29	 1.60	 0.0	 0.0	 1	    1.08718	  -17.03551	 110.0	 1	    1.12000	    0.95000;
	281	 1	 2.44	 0.10	 0.0	 0.0	 1	    1.08724	  -17.02453	 110.0	 1	    1.12000	    0.95000;
	282	 2	 2.21	 0.09	 0.0	 0.0	 1	    1.10962	   -8.63864	 110.0	 1	    1.12000	    0.95000;
	283	 2	 2.21	 0.31	 0.0	 0.0	 1	    1.10940	   -8.66909	 110.0	 1	    1.12000	    0.95000;
	284	 1	 10.13	 3.00	 0.0	 0.0	 1	    1.08178	  -16.79794	 110.0	 1	    1.12000	    0.95000;
	285	 1	 1.87	 0.40	 0.0	 0.0	 1	    1.08879	   -3.95333	 110.0	 1	    1.12000	    0.95000;
	286	 1	 5.24	 1.10	 0.0	 0.0	 1	    1.08877	   -3.95795	 110.0	 1	    1.12000	    0.95000;
	287	 1	 6.29	 0.50	 0.0	 0.0	 1	    1.07539	  -11.61583	 110.0	 1	    1.12000	    0.95000;
	288	 1	 5.48	 0.40	 0.0	 0.0	 1	    1.07539	  -11.60831	 110.0	 1	    1.12000	    0.95000;
	289	 1	 16.40	 7.76	 0.0	 0.0	 1	    1.08209	   -2.74032	 110.0	 1	    1.12000	    0.95000;
	290	 1	 23.05	 11.23	 0.0	 0.0	 1	    1.08198	   -2.76996	 110.0	 1	    1.12000	    0.95000;
	291	 1	 8.04	 0.50	 0.0	 0.0	 1	    1.08500	  -13.58681	 110.0	 1	    1.12000	    0.95000;
	292	 1	 11.30	 3.84	 0.0	 0.0	 1	    1.11641	   -7.54529	 110.0	 1	    1.12000	    0.95000;
	293	 1	 0.00	 0.00	 0.0	 0.0	 1	    1.11642	   -7.53491	 110.0	 1	    1.12000	    0.95000;
	294	 1	 9.89	 0.80	 0.0	 0.0	 1	    1.08255	  -14.10959	 110.0	 1	    1.12000	    0.95000;
	295	 1	 0.00	 0.00	 0.0	 0.0	 1	    1.08258	  -14.11235	 110.0	 1	    1.12000	    0.95000;
	296	 1	 4.66	 0.40	 0.0	 0.0	 1	    1.07180	  -17.49986	 110.0	 1	    1.12000	    0.95000;
	297	 1	 6.40	 0.60	 0.0	 0.0	 1	    1.06463	  -16.78934	 110.0	 1	    1.12000	    0.95000;
	298	 1	 2.92	 0.30	 0.0	 0.0	 1	    1.06453	  -16.78313	 110.0	 1	    1.12000	    0.95000;
	299	 1	 0.00	 0.00	 0.0	 0.0	 1	    1.08988	  -20.37592	 110.0	 1	    1.12000	    0.95000;
	300	 1	 0.58	 0.20	 0.0	 0.0	 1	    1.08982	  -20.38632	 110.0	 1	    1.12000	    0.95000;
	301	 2	 0.20	 0.30	 0.0	 0.0	 1	    1.09939	  -13.56324	 110.0	 1	    1.12000	    0.95000;
	302	 2	 0.07	 0.10	 0.0	 0.0	 1	    1.09969	  -13.56958	 110.0	 1	    1.12000	    0.95000;
	303	 1	 6.99	 0.70	 0.0	 0.0	 1	    1.06796	  -21.43422	 110.0	 1	    1.12000	    0.95000;
	304	 1	 0.35	 0.10	 0.0	 0.0	 1	    1.10818	   -5.16122	 110.0	 1	    1.12000	    0.95000;
	305	 1	 0.47	 0.10	 0.0	 0.0	 1	    1.10687	   -5.82543	 110.0	 1	    1.12000	    0.95000;
	306	 1	 11.88	 7.01	 0.0	 0.0	 1	    1.10620	   -5.22835	 110.0	 1	    1.12000	    0.95000;
	307	 1	 0.58	 0.20	 0.0	 0.0	 1	    1.10684	   -5.82632	 110.0	 1	    1.12000	    0.95000;
	308	 1	 9.55	 1.30	 0.0	 0.0	 1	    1.07087	  -20.54472	 110.0	 1	    1.12000	    0.95000;
	309	 1	 5.60	 0.40	 0.0	 0.0	 1	    1.07085	  -20.54651	 110.0	 1	    1.12000	    0.95000;
	310	 1	 5.60	 1.74	 0.0	 0.0	 1	    1.10609	   -8.68722	 110.0	 1	    1.12000	    0.95000;
	311	 1	 2.86	 -1.40	 0.0	 0.0	 1	    1.10696	   -5.48998	 110.0	 1	    1.12000	    0.95000;
	312	 1	 2.86	 -1.40	 0.0	 0.0	 1	    1.10696	   -5.46487	 110.0	 1	    1.12000	    0.95000;
	313	 1	 3.64	 2.00	 0.0	 0.0	 1	    1.10520	  -10.39211	 110.0	 1	    1.12000	    0.95000;
	314	 1	 0.00	 0.00	 0.0	 0.0	 1	    1.09626	   -0.48213	 110.0	 1	    1.12000	    0.95000;
	315	 1	 0.00	 0.00	 0.0	 0.0	 1	    1.09639	   -0.47429	 110.0	 1	    1.12000	    0.95000;
	316	 2	 23.62	 40.00	 0.0	 0.0	 1	    1.00740	    2.11466	 24.0	 1	    1.12000	    0.95000;
	317	 1	 5.82	 1.00	 0.0	 0.0	 1	    1.06978	  -18.38086	 110.0	 1	    1.12000	    0.95000;