%%%%%%%%%%%%%%%%%%%%%%%%%%%%%%%%%%%%%%%%%%%%%%%%%%%%%%%%%%%%%%%%%%%%%%%%%%%
%%%%                                                                  %%%%%
%%%%    IEEE PES Power Grid Library - Optimal Power Flow - v17.07     %%%%%
%%%%          (https://github.com/power-grid-lib/pglib-opf)           %%%%%
%%%%             Benchmark Group - Active Power Increase              %%%%%
%%%%                         27 - June - 2017                         %%%%%
%%%%                                                                  %%%%%
%%%%%%%%%%%%%%%%%%%%%%%%%%%%%%%%%%%%%%%%%%%%%%%%%%%%%%%%%%%%%%%%%%%%%%%%%%%
function mpc = pglib_opf_case6470_rte__api
mpc.version = '2';
mpc.baseMVA = 100.0;

%% bus data
%	bus_i	type	Pd	Qd	Gs	Bs	area	Vm	Va	baseKV	zone	Vmax	Vmin
mpc.bus = [
	1	 1	 0.00	 0.00	 0.0	 0.0	 1	    0.99310	   -8.46452	 45.0	 1	    1.00000	    0.88889;
	2	 1	 0.00	 0.00	 0.0	 0.0	 1	    1.04385	   -6.29330	 63.0	 1	    1.06349	    0.93651;
	3	 1	 12.50	 -0.70	 0.0	 0.0	 1	    1.04935	   -7.67045	 63.0	 1	    1.07937	    0.95238;
	4	 1	 44.70	 -0.90	 0.0	 0.0	 1	    1.05690	    2.21900	 90.0	 1	    1.08889	    0.93333;
	5	 1	 14.45	 0.10	 0.0	 0.0	 1	    1.06349	    7.62758	 63.0	 1	    1.06349	    0.95238;
	6	 1	 15.65	 4.30	 0.0	 0.0	 1	    1.04816	   -6.48123	 63.0	 1	    1.07937	    0.92063;
	7	 1	 1.45	 0.80	 0.0	 0.0	 1	    1.03229	   -2.63849	 63.0	 1	    1.07937	    0.92063;
	8	 1	 31.07	 4.90	 0.0	 0.0	 1	    1.06627	   -6.43518	 225.0	 1	    1.08889	    0.88889;
	9	 1	 12.90	 0.00	 0.0	 0.0	 1	    1.04904	  -18.39212	 63.0	 1	    1.06349	    0.93651;
	10	 1	 0.00	 0.00	 0.0	 0.0	 1	    1.03352	   -6.49813	 90.0	 1	    1.07778	    0.92222;
	11	 1	 34.68	 1.10	 0.0	 0.0	 1	    1.03352	   -6.49813	 90.0	 1	    1.07778	    0.92222;
	12	 1	 0.00	 0.00	 0.0	 0.0	 1	    1.03033	   -1.21464	 63.0	 1	    1.07937	    0.95238;
	13	 1	 0.00	 0.00	 0.0	 0.0	 1	    1.09535	   -1.93719	 380.0	 1	    1.10263	    1.05526;
	14	 1	 62.02	 1.90	 0.0	 0.0	 1	    1.06880	   -7.30247	 90.0	 1	    1.07778	    0.97778;
	15	 1	 0.00	 0.00	 0.0	 0.0	 1	    0.99380	    0.48835	 63.0	 1	    1.07937	    0.92063;
	16	 1	 16.62	 4.10	 0.0	 0.0	 1	    1.03608	   -0.63948	 63.0	 1	    1.07937	    0.92063;
	17	 1	 15.77	 0.20	 0.0	 0.0	 1	    1.05178	  -12.08866	 90.0	 1	    1.06667	    0.97778;
	18	 1	 0.00	 0.00	 0.0	 0.0	 1	    0.97890	   -2.35690	 45.0	 1	    1.00000	    0.88889;
	19	 1	 1.00	 0.00	 0.0	 0.0	 1	    1.03595	  -11.90820	 63.0	 1	    1.06349	    0.93651;
	20	 1	 0.90	 -21.50	 0.0	 0.0	 1	    0.97986	   -2.38466	 45.0	 1	    1.00000	    0.88889;
	21	 1	 8.30	 -3.30	 0.0	 0.0	 1	    1.03313	    0.22753	 90.0	 1	    1.06667	    0.97778;
	22	 1	 21.68	 1.10	 0.0	 0.0	 1	    1.02521	   -4.73713	 63.0	 1	    1.07937	    0.95238;
	23	 1	 23.12	 3.40	 0.0	 0.0	 1	    1.04903	   -5.11531	 63.0	 1	    1.06349	    0.93651;
	24	 1	 16.10	 -1.60	 0.0	 0.0	 1	    1.11111	   10.85556	 90.0	 1	    1.11111	    0.95556;
	25	 1	 59.90	 -3.20	 0.0	 0.0	 1	    1.08812	   11.41504	 90.0	 1	    1.10000	    0.94444;
	26	 1	 42.27	 8.10	 0.0	 0.0	 1	    1.02187	    9.12686	 90.0	 1	    1.06667	    0.97778;
	27	 1	 0.00	 0.00	 0.0	 0.0	 1	    1.07926	    6.37247	 225.0	 1	    1.08444	    1.00444;
	28	 1	 0.84	 0.20	 0.0	 0.0	 1	    1.03932	  -16.21706	 63.0	 1	    1.07937	    0.95238;
	29	 1	 72.37	 2.70	 0.0	 0.0	 1	    1.03451	  -15.20036	 63.0	 1	    1.06349	    0.96825;
	30	 1	 33.50	 -0.90	 0.0	 0.0	 1	    1.04182	   -3.74676	 90.0	 1	    1.08889	    0.93333;
	31	 1	 0.00	 0.00	 0.0	 0.0	 1	    1.05250	   -2.90980	 63.0	 1	    1.06349	    0.93651;
	32	 1	 0.00	 0.00	 0.0	 0.0	 1	    1.07955	    0.06659	 150.0	 1	    1.10667	    0.90000;
	33	 1	 0.00	 0.00	 0.0	 0.0	 1	    1.08397	   -4.28921	 225.0	 1	    1.08889	    0.93333;
	34	 1	 0.00	 0.00	 0.0	 0.0	 1	    1.08682	   -2.83553	 225.0	 1	    1.08889	    0.93333;
	35	 1	 0.00	 0.00	 0.0	 0.0	 1	    1.09510	   -4.32558	 380.0	 1	    1.10526	    1.03947;
	36	 1	 0.00	 0.00	 0.0	 0.0	 1	    1.08950	   -4.55969	 380.0	 1	    1.10526	    1.03947;
	37	 1	 3.85	 4.30	 0.0	 0.0	 1	    1.02126	  -11.50571	 63.0	 1	    1.07937	    0.92063;
	38	 1	 6.00	 -2.00	 0.0	 0.0	 1	    1.05518	  -11.48274	 63.0	 1	    1.09524	    0.93651;
	39	 1	 41.00	 -3.30	 0.0	 0.0	 1	    1.03903	  -17.53398	 90.0	 1	    1.07778	    0.97778;
	40	 1	 39.26	 0.50	 0.0	 0.0	 1	    1.06342	   -7.83958	 90.0	 1	    1.07778	    0.97778;
	41	 1	 0.00	 0.00	 0.0	 0.0	 1	    1.08850	   -7.59386	 225.0	 1	    1.08889	    1.00444;
	42	 1	 0.00	 0.00	 0.0	 0.0	 1	    1.12729	    1.59768	 63.0	 1	    1.13259	    0.95238;
	43	 1	 4.34	 2.00	 0.0	 0.0	 1	    1.04756	  -11.33043	 90.0	 1	    1.07778	    0.97778;
	44	 1	 13.00	 -0.70	 0.0	 0.0	 1	    1.02449	    2.02238	 63.0	 1	    1.06349	    0.95238;
	45	 1	 4.70	 1.70	 0.0	 0.0	 1	    1.01365	   -9.26039	 90.0	 1	    1.06667	    0.97778;
	46	 1	 0.00	 0.00	 0.0	 0.0	 1	    1.04094	  -16.39245	 63.0	 1	    1.06349	    0.93651;
	47	 2	 0.00	 0.00	 0.0	 0.0	 1	    1.05244	  -16.43145	 63.0	 1	    1.06349	    0.93651;
	48	 1	 43.95	 3.40	 0.0	 0.0	 1	    1.07778	   13.91283	 90.0	 1	    1.07778	    0.92222;
	49	 1	 8.80	 -1.70	 0.0	 0.0	 1	    1.03617	  -12.47953	 63.0	 1	    1.06349	    0.93651;
	50	 1	 0.00	 0.00	 0.0	 0.0	 1	    1.07012	  -14.58578	 63.0	 1	    1.07012	    0.93651;
	51	 1	 0.00	 0.00	 0.0	 0.0	 1	    1.06220	   -9.57142	 225.0	 1	    1.08889	    0.93333;
	52	 1	 6.02	 2.40	 0.0	 0.0	 1	    1.03806	  -11.14897	 90.0	 1	    1.06667	    0.97778;
	53	 1	 2.50	 -0.50	 0.0	 0.0	 1	    1.02263	  -13.88932	 63.0	 1	    1.04762	    0.95238;
	54	 1	 -0.40	 -0.00	 0.0	 0.0	 1	    1.04377	    1.30291	 90.0	 1	    1.06667	    0.97778;
	55	 1	 45.28	 6.70	 0.0	 0.0	 1	    1.07148	  -14.68455	 225.0	 1	    1.08889	    1.00444;
	56	 1	 62.74	 13.50	 0.0	 0.0	 1	    1.08259	  -11.37974	 225.0	 1	    1.08889	    1.00444;
	57	 2	 0.00	 0.00	 0.0	 0.0	 1	    1.04803	   -3.38868	 63.0	 1	    1.07937	    0.92063;
	58	 1	 157.27	 30.10	 0.0	 0.0	 1	    1.07127	  -14.70437	 225.0	 1	    1.08889	    1.00444;
	59	 1	 6.14	 1.30	 0.0	 0.0	 1	    1.03087	  -10.05426	 63.0	 1	    1.07937	    0.95238;
	60	 1	 0.00	 0.00	 0.0	 0.0	 1	    1.04703	  -10.55054	 63.0	 1	    1.07937	    0.95238;
	61	 1	 47.56	 9.70	 0.0	 0.0	 1	    1.03886	   -9.69049	 63.0	 1	    1.07937	    0.95238;
	62	 1	 0.00	 0.00	 0.0	 0.0	 1	    1.02830	  -11.39017	 63.0	 1	    1.07937	    0.95238;
	63	 1	 19.03	 2.00	 0.0	 0.0	 1	    1.00900	   -3.16228	 63.0	 1	    1.07937	    0.95238;
	64	 1	 75.14	 1.00	 0.0	 0.0	 1	    1.08889	    3.99829	 225.0	 1	    1.08889	    0.88889;
	65	 1	 13.25	 2.80	 0.0	 0.0	 1	    1.04788	  -10.74594	 63.0	 1	    1.07937	    0.95238;
	66	 1	 13.20	 -7.90	 0.0	 0.0	 1	    1.04041	  -16.29446	 63.0	 1	    1.06349	    0.93651;
	67	 1	 0.00	 0.00	 0.0	 0.0	 1	    1.03918	   -6.83533	 63.0	 1	    1.07937	    0.92063;
	68	 1	 48.10	 -0.10	 0.0	 0.0	 1	    1.03534	  -15.06227	 63.0	 1	    1.06349	    0.93651;
	69	 1	 19.30	 -2.70	 0.0	 0.0	 1	    1.06349	    1.61621	 63.0	 1	    1.06349	    0.95238;
	70	 1	 12.76	 2.70	 0.0	 0.0	 1	    1.03708	    0.62540	 63.0	 1	    1.07937	    0.95238;
	71	 1	 75.14	 14.90	 0.0	 0.0	 1	    1.03012	  -16.19888	 63.0	 1	    1.04762	    0.95238;
	72	 1	 0.00	 0.00	 0.0	 0.0	 1	    1.08878	   -4.36756	 225.0	 1	    1.09027	    1.00444;
	73	 1	 0.00	 0.00	 0.0	 0.0	 1	    1.08897	   -4.29027	 225.0	 1	    1.09025	    1.00444;
	74	 1	 50.40	 -9.90	 0.0	 0.0	 1	    1.08301	    2.73578	 225.0	 1	    1.08889	    0.88889;
	75	 1	 26.85	 1.80	 0.0	 0.0	 1	    1.06392	   -9.74417	 90.0	 1	    1.06730	    0.97778;
	76	 1	 2.60	 -0.40	 0.0	 0.0	 1	    1.07906	    0.58049	 225.0	 1	    1.08923	    0.98667;
	77	 1	 36.80	 -0.40	 0.0	 0.0	 1	    1.03607	  -14.55609	 63.0	 1	    1.06349	    0.93651;
	78	 1	 0.00	 0.00	 0.0	 0.0	 1	    1.02667	   -7.02240	 63.0	 1	    1.07937	    0.92063;
	79	 1	 0.00	 0.00	 0.0	 0.0	 1	    1.02729	    4.49058	 63.0	 1	    1.04762	    0.95238;
	80	 1	 38.89	 7.30	 0.0	 0.0	 1	    1.08780	   -6.14410	 225.0	 1	    1.08889	    1.00444;
	81	 1	 43.71	 9.90	 0.0	 0.0	 1	    1.08781	   -6.14421	 225.0	 1	    1.08889	    1.00444;
	82	 1	 14.09	 1.60	 0.0	 0.0	 1	    1.03141	  -11.94417	 63.0	 1	    1.06349	    0.93651;
	83	 1	 93.32	 26.40	 0.0	 0.0	 1	    1.06415	  -11.71994	 225.0	 1	    1.08889	    1.00444;
	84	 1	 -1.60	 -1.20	 0.0	 0.0	 1	    1.05605	    8.20449	 63.0	 1	    1.06349	    0.93651;
	85	 1	 2.10	 -2.10	 0.0	 0.0	 1	    1.04579	   -5.28771	 63.0	 1	    1.06349	    0.93651;
	86	 1	 58.88	 3.60	 0.0	 0.0	 1	    1.06667	   18.11791	 90.0	 1	    1.06667	    0.97778;
	87	 1	 0.00	 0.00	 0.0	 0.0	 1	    1.02329	   -3.04102	 63.0	 1	    1.07937	    0.95238;
	88	 1	 13.50	 -0.10	 0.0	 0.0	 1	    1.02420	  -10.31809	 63.0	 1	    1.06349	    0.93651;
	89	 1	 30.59	 0.80	 0.0	 0.0	 1	    1.03889	  -12.97239	 90.0	 1	    1.07778	    0.97778;
	90	 1	 0.40	 -1.40	 0.0	 0.0	 1	    0.97521	   -3.57821	 45.0	 1	    1.00000	    0.88889;
	91	 1	 1.00	 0.00	 0.0	 0.0	 1	    0.97831	   -2.43520	 45.0	 1	    1.00000	    0.88889;
	92	 1	 34.44	 3.20	 0.0	 0.0	 1	    1.03349	  -12.71637	 63.0	 1	    1.06349	    0.96825;
	93	 1	 2.10	 -2.50	 0.0	 0.0	 1	    0.98963	   -3.45963	 45.0	 1	    1.00000	    0.88889;
	94	 1	 17.50	 -4.30	 0.0	 0.0	 1	    1.04300	   -3.26175	 90.0	 1	    1.06667	    0.97778;
	95	 1	 55.99	 7.60	 0.0	 0.0	 1	    1.03155	   -7.60520	 90.0	 1	    1.06667	    0.97778;
	96	 1	 1.50	 -0.70	 0.0	 0.0	 1	    1.04889	   -9.14337	 63.0	 1	    1.06349	    0.93651;
	97	 1	 67.92	 0.90	 0.0	 0.0	 1	    1.06043	  -10.98549	 63.0	 1	    1.07937	    0.92063;
	98	 1	 7.40	 -1.30	 0.0	 0.0	 1	    1.04386	  -11.56014	 63.0	 1	    1.07937	    0.95238;
	99	 1	 32.39	 3.10	 0.0	 0.0	 1	    1.04468	   -9.56170	 63.0	 1	    1.07937	    0.95238;
	100	 1	 64.18	 8.60	 0.0	 0.0	 1	    1.01342	  -15.58216	 63.0	 1	    1.06349	    0.93651;
	101	 1	 21.31	 0.50	 0.0	 0.0	 1	    1.03587	   -6.29381	 63.0	 1	    1.06349	    0.93651;
	102	 2	 0.00	 0.00	 0.0	 0.0	 1	    1.06870	    7.98114	 63.0	 1	    1.07937	    0.95238;
	103	 1	 18.00	 -1.10	 0.0	 0.0	 1	    1.03340	   -9.49060	 63.0	 1	    1.07937	    0.95238;
	104	 1	 0.00	 0.00	 0.0	 0.0	 1	    1.07481	   -6.74623	 225.0	 1	    1.08889	    0.98667;
	105	 1	 42.75	 1.00	 0.0	 0.0	 1	    1.05035	   -1.27294	 225.0	 1	    1.08889	    0.88889;
	106	 1	 59.97	 7.50	 0.0	 0.0	 1	    1.04843	   -0.31346	 90.0	 1	    1.10000	    0.94444;
	107	 1	 93.44	 8.10	 0.0	 0.0	 1	    1.08304	  -19.15627	 225.0	 1	    1.08444	    1.00889;
	108	 1	 12.60	 -0.40	 0.0	 0.0	 1	    1.05779	   -3.75379	 90.0	 1	    1.07778	    0.97778;
	109	 1	 82.73	 10.90	 0.0	 0.0	 1	    1.06349	  -11.15580	 63.0	 1	    1.06349	    0.93651;
	110	 1	 0.00	 0.00	 0.0	 0.0	 1	    1.04845	   -6.40663	 225.0	 1	    1.08889	    0.93333;
	111	 1	 36.50	 -7.90	 0.0	 0.0	 1	    1.03699	  -10.31300	 63.0	 1	    1.06349	    0.96825;
	112	 1	 0.00	 0.00	 0.0	 0.0	 1	    1.03486	  -12.66458	 63.0	 1	    1.04762	    0.95238;
	113	 1	 0.00	 0.00	 0.0	 0.0	 1	    1.07730	   -9.34026	 225.0	 1	    1.08889	    1.00444;
	114	 1	 10.80	 -0.00	 0.0	 0.0	 1	    1.05408	  -11.49301	 63.0	 1	    1.06349	    0.93651;
	115	 1	 0.00	 0.00	 0.0	 0.0	 1	    1.09538	   -1.93193	 380.0	 1	    1.10526	    1.05263;
	116	 1	 0.00	 0.00	 0.0	 0.0	 1	    1.09536	   -1.93727	 380.0	 1	    1.10526	    1.05263;
	117	 1	 15.40	 -1.00	 0.0	 0.0	 1	    1.02537	  -16.67701	 63.0	 1	    1.07937	    0.95238;
	118	 1	 2.41	 0.80	 0.0	 0.0	 1	    1.06656	   -9.42245	 90.0	 1	    1.06958	    0.97778;
	119	 1	 44.80	 5.30	 0.0	 0.0	 1	    1.04086	   -8.86159	 63.0	 1	    1.06349	    0.93651;
	120	 1	 17.00	 -3.20	 0.0	 0.0	 1	    1.05897	   -4.95292	 63.0	 1	    1.06349	    0.93651;
	121	 1	 21.19	 3.90	 0.0	 0.0	 1	    1.01421	  -12.79975	 63.0	 1	    1.07937	    0.92063;
	122	 2	 0.00	 0.00	 0.0	 0.0	 1	    1.04195	   -9.73311	 63.0	 1	    1.07937	    0.95238;
	123	 1	 10.84	 2.60	 0.0	 0.0	 1	    1.03899	   -9.77083	 63.0	 1	    1.07937	    0.95238;
	124	 1	 8.00	 -0.90	 0.0	 0.0	 1	    1.06667	   11.20532	 90.0	 1	    1.06667	    0.97778;
	125	 1	 10.50	 -0.50	 0.0	 0.0	 1	    1.03625	   -2.94342	 63.0	 1	    1.07937	    0.95238;
	126	 1	 0.30	 -0.10	 0.0	 0.0	 1	    1.04167	   -4.42012	 63.0	 1	    1.06349	    0.93651;
	127	 1	 9.39	 1.50	 0.0	 0.0	 1	    1.00607	    5.61454	 63.0	 1	    1.04762	    0.95238;
	128	 1	 14.21	 7.60	 0.0	 0.0	 1	    1.04689	   -2.28496	 63.0	 1	    1.06349	    0.96825;
	129	 1	 20.11	 11.80	 0.0	 0.0	 1	    1.05593	    4.29192	 63.0	 1	    1.06349	    0.96825;
	130	 1	 0.00	 0.00	 0.0	 0.0	 1	    1.08149	   -3.75401	 225.0	 1	    1.08444	    1.00889;
	131	 1	 124.03	 13.60	 0.0	 0.0	 1	    1.07862	   -8.88738	 225.0	 1	    1.08444	    1.00889;
	132	 2	 11.50	 0.00	 0.0	 0.0	 1	    1.07778	   18.34329	 90.0	 1	    1.07778	    0.92222;
	133	 1	 2.53	 0.50	 0.0	 0.0	 1	    1.02390	  -15.78263	 63.0	 1	    1.04762	    0.95238;
	134	 1	 100.55	 23.60	 0.0	 0.0	 1	    1.06851	  -12.69229	 225.0	 1	    1.08889	    1.00444;
	135	 1	 0.00	 0.00	 0.0	 0.0	 1	    1.07202	  -14.51702	 225.0	 1	    1.08889	    1.00444;
	136	 1	 21.90	 -0.20	 0.0	 0.0	 1	    1.05055	  -14.52720	 90.0	 1	    1.07778	    0.97778;
	137	 2	 9.60	 -4.40	 0.0	 0.0	 1	    1.03694	   -8.57009	 63.0	 1	    1.06349	    0.96825;
	138	 1	 0.00	 0.00	 0.0	 0.0	 1	    1.05740	   -6.79573	 150.0	 1	    1.08000	    0.96667;
	139	 1	 18.91	 2.20	 0.0	 0.0	 1	    1.05528	   -6.52823	 63.0	 1	    1.07937	    0.92063;
	140	 1	 0.00	 0.00	 0.0	 80.0	 1	    1.08889	   -2.80487	 225.0	 1	    1.08889	    1.00000;
	141	 1	 0.00	 0.00	 0.0	 0.0	 1	    1.09655	    0.29048	 380.0	 1	    1.10526	    1.05263;
	142	 1	 17.82	 5.80	 0.0	 0.0	 1	    1.03528	   -9.56894	 63.0	 1	    1.07937	    0.95238;
	143	 1	 0.00	 0.00	 0.0	 0.0	 1	    1.08484	   -6.47015	 225.0	 1	    1.08889	    0.98667;
	144	 1	 23.30	 -10.30	 0.0	 0.0	 1	    1.06357	   -0.13362	 90.0	 1	    1.11111	    0.95556;
	145	 1	 33.24	 5.90	 0.0	 0.0	 1	    1.08367	    2.79687	 225.0	 1	    1.08889	    0.96889;
	146	 1	 0.00	 0.00	 0.0	 0.0	 1	    1.09108	    0.37357	 380.0	 1	    1.10526	    1.00000;
	147	 1	 34.92	 5.50	 0.0	 0.0	 1	    1.05084	  -12.17943	 63.0	 1	    1.06349	    0.93651;
	148	 1	 8.07	 2.40	 0.0	 0.0	 1	    1.03040	   -8.23950	 63.0	 1	    1.06349	    0.93651;
	149	 1	 21.55	 6.10	 0.0	 0.0	 1	    1.04768	  -10.71652	 90.0	 1	    1.06667	    0.97778;
	150	 1	 53.59	 6.40	 0.0	 0.0	 1	    1.04958	   -3.43259	 63.0	 1	    1.06349	    0.93651;
	151	 1	 0.00	 0.00	 0.0	 0.0	 1	    0.99578	  -13.37101	 63.0	 1	    1.06349	    0.96825;
	152	 1	 46.12	 8.80	 0.0	 7.7	 1	    0.99605	  -12.17628	 63.0	 1	    1.06349	    0.96825;
	153	 1	 23.20	 -2.60	 0.0	 0.0	 1	    1.03130	   -6.65432	 63.0	 1	    1.06349	    0.93651;
	154	 1	 0.00	 0.00	 0.0	 0.0	 1	    1.08355	   -7.98625	 225.0	 1	    1.08889	    0.93333;
	155	 2	 0.00	 0.00	 0.0	 0.0	 1	    1.07936	   11.89483	 63.0	 1	    1.07937	    0.92063;
	156	 1	 0.00	 0.00	 0.0	 0.0	 1	    0.99573	  -13.38398	 63.0	 1	    1.06349	    0.96825;
	157	 1	 0.36	 3.10	 0.0	 0.0	 1	    0.95728	    4.42245	 45.0	 1	    1.00000	    0.88889;
	158	 2	 0.00	 0.00	 0.0	 0.0	 1	    0.99955	   -7.91816	 45.0	 1	    1.00000	    0.88889;
	159	 1	 0.00	 0.00	 0.0	 0.0	 1	    1.05221	   -1.63997	 63.0	 1	    1.06349	    0.93651;
	160	 1	 42.39	 5.60	 0.0	 0.0	 1	    1.05540	    0.04175	 225.0	 1	    1.08889	    0.88889;
	161	 1	 46.00	 8.70	 0.0	 0.0	 1	    1.05525	    0.03413	 225.0	 1	    1.08889	    0.88889;
	162	 1	 0.70	 -1.40	 0.0	 0.0	 1	    1.04461	    2.19663	 90.0	 1	    1.06667	    0.97778;
	163	 1	 0.00	 0.00	 0.0	 0.0	 1	    1.04347	  -11.34912	 63.0	 1	    1.07937	    0.95238;
	164	 1	 0.00	 0.00	 0.0	 0.0	 1	    1.04347	  -11.34912	 63.0	 1	    1.07937	    0.95238;
	165	 1	 20.11	 9.20	 0.0	 0.0	 1	    1.07769	   -4.96622	 20.0	 1	    1.15000	    0.80000;
	166	 1	 12.16	 2.40	 0.0	 0.0	 1	    1.04546	  -10.00203	 90.0	 1	    1.06667	    0.97778;
	167	 1	 16.38	 0.60	 0.0	 0.0	 1	    1.03837	  -10.19326	 90.0	 1	    1.06667	    0.97778;
	168	 1	 0.00	 0.00	 0.0	 0.0	 1	    1.07777	   -4.95829	 225.0	 1	    1.08444	    1.00444;
	169	 1	 10.80	 -1.00	 0.0	 0.0	 1	    1.02540	    0.75132	 90.0	 1	    1.06667	    0.97778;
	170	 1	 84.77	 11.60	 0.0	 0.0	 1	    1.05363	  -14.61418	 90.0	 1	    1.07778	    0.97778;
	171	 1	 26.50	 -0.40	 0.0	 0.0	 1	    1.05997	  -13.73888	 90.0	 1	    1.07778	    0.97778;
	172	 1	 0.00	 0.00	 0.0	 0.0	 1	    1.07346	  -12.39038	 225.0	 1	    1.08889	    1.00444;
	173	 1	 33.36	 8.50	 0.0	 0.0	 1	    1.07501	   10.36592	 90.0	 1	    1.08889	    0.93333;
	174	 1	 57.08	 4.60	 0.0	 0.0	 1	    1.06017	   -8.16589	 90.0	 1	    1.11111	    0.95556;
	175	 1	 0.00	 0.00	 0.0	 0.0	 1	    1.06166	    2.75532	 63.0	 1	    1.07937	    0.92063;
	176	 1	 0.00	 0.00	 0.0	 0.0	 1	    1.05077	    1.74234	 63.0	 1	    1.07937	    0.92063;
	177	 2	 0.00	 0.00	 0.0	 0.0	 1	    1.09905	    3.27115	 150.0	 1	    1.10000	    0.90000;
	178	 1	 0.00	 0.00	 0.0	 0.0	 1	    1.08778	   -8.42583	 225.0	 1	    1.08889	    1.00444;
	179	 1	 0.00	 0.00	 0.0	 0.0	 1	    1.08778	   -8.42584	 225.0	 1	    1.08889	    1.00444;
	180	 1	 0.00	 0.00	 0.0	 -32.0	 1	    0.97339	    6.60579	 20.0	 1	    1.15000	    0.80000;
	181	 1	 0.00	 0.00	 0.0	 -32.0	 1	    0.99474	    6.41117	 20.0	 1	    1.15000	    0.80000;
	182	 1	 0.00	 0.00	 0.0	 0.0	 1	    1.00620	    5.62381	 63.0	 1	    1.04762	    0.95238;
	183	 1	 0.00	 0.00	 0.0	 0.0	 1	    1.08778	   -8.42583	 225.0	 1	    1.08889	    1.00444;
	184	 1	 12.90	 -4.60	 0.0	 0.0	 1	    1.04409	   -7.76059	 63.0	 1	    1.07937	    0.92063;
	185	 1	 19.27	 3.10	 0.0	 0.0	 1	    1.05074	   -9.84151	 63.0	 1	    1.06349	    0.93651;
	186	 1	 4.80	 -0.40	 0.0	 0.0	 1	    1.03972	  -12.32033	 63.0	 1	    1.07937	    0.95238;
	187	 1	 6.02	 1.40	 0.0	 0.0	 1	    1.06980	   -5.61485	 90.0	 1	    1.07778	    0.97778;
	188	 1	 34.56	 4.00	 0.0	 0.0	 1	    1.02511	  -10.63984	 63.0	 1	    1.07937	    0.95238;
	189	 1	 1.32	 0.30	 0.0	 0.0	 1	    1.03388	    1.49722	 90.0	 1	    1.06667	    0.97778;
	190	 2	 0.00	 0.00	 0.0	 0.0	 1	    1.06027	    0.49528	 63.0	 1	    1.07937	    0.92063;
	191	 1	 19.51	 1.60	 0.0	 0.0	 1	    1.00400	   -4.02112	 63.0	 1	    1.07937	    0.92063;
	192	 2	 0.00	 0.00	 0.0	 0.0	 1	    0.97846	   -6.25361	 45.0	 1	    1.00000	    0.88889;
	193	 1	 13.80	 -0.30	 0.0	 0.0	 1	    1.02384	   -0.45009	 90.0	 1	    1.06667	    0.97778;
	194	 1	 7.40	 -1.50	 0.0	 0.0	 1	    1.04825	   -4.05654	 63.0	 1	    1.07937	    0.92063;
	195	 1	 9.51	 4.80	 0.0	 0.0	 1	    1.07644	   -9.89516	 225.0	 1	    1.08889	    1.00444;
	196	 2	 1.00	 -0.30	 0.0	 0.0	 1	    1.07698	   11.94501	 63.0	 1	    1.07937	    0.92063;
	197	 1	 0.00	 0.00	 0.0	 0.0	 1	    1.09597	  -12.77541	 63.0	 1	    1.09837	    0.95238;
	198	 1	 0.00	 0.00	 0.0	 0.0	 1	    1.09597	  -12.77546	 63.0	 1	    1.09837	    0.95238;
	199	 1	 29.38	 1.20	 0.0	 0.0	 1	    1.04686	  -14.30920	 63.0	 1	    1.07937	    0.92063;
	200	 1	 9.30	 -2.70	 0.0	 0.0	 1	    1.04543	    3.60473	 63.0	 1	    1.07937	    0.92063;
	201	 1	 15.41	 1.90	 0.0	 0.0	 1	    1.02379	  -13.12722	 90.0	 1	    1.06667	    0.97778;
	202	 1	 0.00	 0.00	 0.0	 0.0	 1	    1.08062	   -7.27583	 225.0	 1	    1.08889	    1.00000;
	203	 1	 88.27	 24.60	 0.0	 0.0	 1	    1.04782	   -3.28562	 225.0	 1	    1.08889	    0.88889;
	204	 1	 50.33	 1.40	 0.0	 0.0	 1	    1.01651	  -21.16867	 63.0	 1	    1.06349	    0.96825;
	205	 1	 21.07	 2.50	 0.0	 0.0	 1	    1.08609	   11.42047	 90.0	 1	    1.10000	    0.94444;
	206	 1	 0.00	 0.00	 0.0	 0.0	 1	    1.08798	    7.22068	 225.0	 1	    1.08889	    0.96889;
	207	 1	 0.00	 0.00	 0.0	 0.0	 1	    1.09743	    6.98067	 380.0	 1	    1.10526	    1.00000;
	208	 1	 60.33	 6.80	 0.0	 0.0	 1	    1.02995	  -18.45390	 63.0	 1	    1.06349	    0.96825;
	209	 1	 39.62	 4.10	 0.0	 0.0	 1	    1.02054	   -3.18547	 63.0	 1	    1.06349	    0.96825;
	210	 1	 14.40	 -1.60	 0.0	 0.0	 1	    1.04113	   -8.58222	 90.0	 1	    1.07778	    0.97778;
	211	 1	 3.49	 0.10	 0.0	 0.0	 1	    1.04429	  -11.40899	 63.0	 1	    1.06349	    0.96825;
	212	 1	 49.13	 5.50	 0.0	 0.0	 1	    1.02534	   -7.62378	 63.0	 1	    1.06349	    0.96825;
	213	 1	 38.29	 12.20	 0.0	 0.0	 1	    1.02532	   -7.46800	 63.0	 1	    1.06349	    0.96825;
	214	 1	 0.00	 0.00	 0.0	 0.0	 1	    1.07107	   -7.39176	 225.0	 1	    1.08444	    1.00889;
	215	 1	 0.00	 0.00	 0.0	 0.0	 1	    1.07099	   -7.37809	 225.0	 1	    1.08444	    1.00889;
	216	 1	 45.16	 3.10	 0.0	 30.4	 1	    1.05190	  -12.98944	 90.0	 1	    1.07778	    0.97778;
	217	 1	 0.00	 0.00	 0.0	 0.0	 1	    1.07587	  -10.47372	 225.0	 1	    1.08889	    1.00444;
	218	 1	 20.70	 -2.40	 0.0	 0.0	 1	    1.01180	   -5.74323	 63.0	 1	    1.06349	    0.95238;
	219	 1	 30.10	 3.40	 0.0	 0.0	 1	    1.06667	   18.20183	 90.0	 1	    1.06667	    0.97778;
	220	 1	 1.60	 -0.10	 0.0	 0.0	 1	    1.04366	    1.29270	 90.0	 1	    1.06667	    0.97778;
	221	 1	 10.40	 -3.70	 0.0	 0.0	 1	    1.02251	   -8.18584	 90.0	 1	    1.06667	    0.97778;
	222	 1	 13.25	 1.50	 0.0	 0.0	 1	    1.01201	   -2.86570	 63.0	 1	    1.07937	    0.95238;
	223	 1	 14.30	 -8.50	 0.0	 0.0	 1	    1.04284	    0.60760	 63.0	 1	    1.06349	    0.93651;
	224	 1	 0.00	 0.00	 0.0	 0.0	 1	    1.08902	    3.04910	 225.0	 1	    1.08902	    0.93333;
	225	 1	 49.13	 2.00	 0.0	 0.0	 1	    1.02185	   -9.98166	 63.0	 1	    1.07937	    0.92063;
	226	 2	 0.00	 0.00	 0.0	 0.0	 1	    1.09900	    3.27212	 150.0	 1	    1.10000	    0.90000;
	227	 1	 45.28	 6.00	 0.0	 0.0	 1	    1.08101	   -5.71487	 225.0	 1	    1.08444	    1.00889;
	228	 1	 46.48	 44.00	 0.0	 0.0	 1	    1.08042	   -5.70999	 225.0	 1	    1.08444	    1.00889;
	229	 1	 4.82	 0.20	 0.0	 0.0	 1	    1.02321	   -9.22219	 63.0	 1	    1.06349	    0.95238;
	230	 1	 9.90	 -2.00	 0.0	 0.0	 1	    1.02685	   -9.80832	 63.0	 1	    1.06349	    0.95238;
	231	 1	 12.40	 -5.70	 0.0	 0.0	 1	    1.05736	   -6.27158	 63.0	 1	    1.07937	    0.92063;
	232	 1	 0.00	 0.00	 0.0	 0.0	 1	    1.08208	   -6.64114	 225.0	 1	    1.08889	    0.97778;
	233	 1	 6.00	 -2.40	 0.0	 0.0	 1	    1.05428	   11.17620	 90.0	 1	    1.06667	    0.97778;
	234	 1	 7.71	 1.00	 0.0	 0.0	 1	    1.07809	    3.97863	 90.0	 1	    1.08889	    0.93333;
	235	 1	 0.00	 0.00	 0.0	 0.0	 1	    1.06067	  -10.62645	 20.0	 1	    1.15000	    0.80000;
	236	 1	 28.78	 8.50	 0.0	 0.0	 1	    1.06067	  -10.62645	 90.0	 1	    1.08889	    0.93333;
	237	 1	 16.50	 3.10	 0.0	 0.0	 1	    1.07543	   -6.75716	 225.0	 1	    1.08889	    0.88889;
	238	 1	 32.03	 1.50	 0.0	 0.0	 1	    1.05995	    8.28023	 90.0	 1	    1.07778	    0.92222;
	239	 1	 55.63	 6.80	 0.0	 0.0	 1	    1.03017	   -9.95330	 63.0	 1	    1.06349	    0.93651;
	240	 1	 21.40	 -0.90	 0.0	 0.0	 1	    1.01627	   -0.69858	 90.0	 1	    1.06667	    0.97778;
	241	 1	 62.74	 3.60	 0.0	 0.0	 1	    1.00005	  -14.40973	 63.0	 1	    1.06349	    0.95238;
	242	 1	 49.85	 8.30	 0.0	 0.0	 1	    1.02674	   -7.01767	 63.0	 1	    1.07937	    0.92063;
	243	 1	 54.67	 4.40	 0.0	 0.0	 1	    1.01320	   -1.58657	 90.0	 1	    1.07778	    0.92222;
	244	 1	 54.79	 4.80	 0.0	 0.0	 1	    1.02913	  -17.35858	 63.0	 1	    1.06349	    0.96825;
	245	 1	 26.70	 -3.40	 0.0	 0.0	 1	    1.00057	  -10.30652	 63.0	 1	    1.07937	    0.92063;
	246	 1	 63.94	 3.30	 0.0	 0.0	 1	    1.01841	    7.73911	 90.0	 1	    1.07778	    0.92222;
	247	 1	 12.80	 -2.10	 0.0	 0.0	 1	    1.02397	  -13.45402	 63.0	 1	    1.07937	    0.92063;
	248	 2	 14.81	 4.90	 0.0	 0.0	 1	    1.02426	   -5.13080	 63.0	 1	    1.06349	    0.93651;
	249	 1	 0.00	 0.00	 0.0	 0.0	 1	    1.07959	   -3.66718	 225.0	 1	    1.08889	    0.93333;
	250	 1	 34.80	 9.40	 0.0	 0.0	 1	    1.08207	  -11.62569	 225.0	 1	    1.08889	    1.00444;
	251	 1	 24.00	 -5.30	 0.0	 0.0	 1	    1.04942	   -0.54243	 63.0	 1	    1.07937	    0.92063;
	252	 1	 23.50	 -7.30	 0.0	 0.0	 1	    1.03519	  -15.22845	 63.0	 1	    1.07937	    0.95238;
	253	 1	 6.10	 -0.00	 0.0	 0.0	 1	    1.03173	   -7.14090	 90.0	 1	    1.06667	    0.97778;
	254	 1	 9.50	 -1.60	 0.0	 0.0	 1	    1.03281	    0.27337	 90.0	 1	    1.06667	    0.97778;
	255	 1	 58.40	 6.80	 0.0	 0.0	 1	    1.04561	  -11.86757	 63.0	 1	    1.07937	    0.95238;
	256	 1	 20.35	 0.40	 0.0	 0.0	 1	    1.04285	  -16.19747	 63.0	 1	    1.07937	    0.95238;
	257	 1	 6.90	 -1.40	 0.0	 0.0	 1	    1.04386	    1.28119	 63.0	 1	    1.06349	    0.93651;
	258	 2	 4.70	 0.00	 0.0	 0.0	 1	    1.03769	   -7.57642	 63.0	 1	    1.07937	    0.92063;
	259	 1	 0.00	 0.00	 0.0	 0.0	 1	    1.08004	   -7.46094	 225.0	 1	    1.08889	    1.00000;
	260	 2	 -0.00	 0.00	 0.0	 0.0	 1	    1.07590	   13.79258	 90.0	 1	    1.07778	    0.92222;
	261	 1	 35.76	 1.10	 0.0	 0.0	 1	    1.04182	   -9.59699	 63.0	 1	    1.07937	    0.95238;
	262	 1	 0.00	 0.00	 0.0	 0.0	 1	    1.08044	   -7.22220	 225.0	 1	    1.08889	    0.98667;
	263	 2	 0.00	 0.00	 0.0	 0.0	 1	    1.06319	   -8.30240	 63.0	 1	    1.07937	    0.92063;
	264	 1	 0.00	 0.00	 0.0	 80.0	 1	    1.06441	   -2.51170	 225.0	 1	    1.08889	    0.88889;
	265	 1	 0.00	 0.00	 0.0	 0.0	 1	    1.05127	   -1.57514	 225.0	 1	    1.08889	    0.88889;
	266	 1	 0.00	 0.00	 0.0	 0.0	 1	    1.05958	   -0.30598	 380.0	 1	    1.10526	    1.01316;
	267	 1	 0.00	 0.00	 0.0	 0.0	 1	    1.01764	  -14.72668	 63.0	 1	    1.04762	    0.95238;
	268	 1	 31.67	 6.40	 0.0	 0.0	 1	    1.07993	  -11.33518	 225.0	 1	    1.08889	    1.00444;
	269	 1	 69.00	 10.10	 0.0	 0.0	 1	    1.08634	   -6.76871	 225.0	 1	    1.08889	    1.00444;
	270	 1	 12.64	 9.50	 0.0	 0.0	 1	    1.01024	  -10.11117	 63.0	 1	    1.07937	    0.92063;
	271	 1	 27.33	 2.70	 0.0	 0.0	 1	    1.00848	   -9.66810	 63.0	 1	    1.07937	    0.92063;
	272	 1	 0.00	 0.00	 0.0	 0.0	 1	    1.07724	   -4.92830	 225.0	 1	    1.08889	    0.97778;
	273	 1	 0.00	 0.00	 0.0	 0.0	 1	    1.07716	   -4.96084	 225.0	 1	    1.08889	    0.97778;
	274	 1	 8.07	 7.70	 0.0	 0.0	 1	    1.04702	   -7.18951	 63.0	 1	    1.06349	    0.96825;
	275	 1	 66.71	 0.80	 0.0	 0.0	 1	    1.07492	   -5.49159	 225.0	 1	    1.08444	    1.00889;
	276	 1	 52.74	 8.20	 0.0	 0.0	 1	    1.05892	   -8.15816	 90.0	 1	    1.10000	    0.94444;
	277	 1	 0.00	 0.00	 0.0	 0.0	 1	    1.08444	    2.22675	 225.0	 1	    1.08444	    1.00444;
	278	 1	 0.00	 0.00	 0.0	 0.0	 1	    1.10064	    6.48352	 380.0	 1	    1.10263	    1.04211;
	279	 1	 2.17	 4.20	 0.0	 0.0	 1	    1.04117	   -1.12578	 90.0	 1	    1.06667	    0.97778;
	280	 1	 -1.50	 4.30	 0.0	 0.0	 1	    1.08417	    2.18533	 225.0	 1	    1.08444	    1.00444;
	281	 1	 10.00	 -2.10	 0.0	 0.0	 1	    1.02872	  -21.69691	 63.0	 1	    1.06349	    0.93651;
	282	 1	 57.80	 11.30	 0.0	 0.0	 1	    1.06390	  -10.02346	 90.0	 1	    1.07778	    0.97778;
	283	 1	 15.41	 0.90	 0.0	 0.0	 1	    1.00980	   -6.55949	 63.0	 1	    1.07937	    0.95238;
	284	 2	 0.00	 0.00	 0.0	 0.0	 1	    1.02426	   -5.13082	 63.0	 1	    1.06349	    0.93651;
	285	 1	 13.01	 0.20	 0.0	 0.0	 1	    1.03014	   -7.90390	 90.0	 1	    1.06667	    0.97778;
	286	 1	 17.70	 3.50	 0.0	 0.0	 1	    1.01767	   -0.20620	 63.0	 1	    1.07937	    0.95238;
	287	 1	 1.69	 5.00	 0.0	 0.0	 1	    1.08319	  -11.21916	 225.0	 1	    1.08889	    1.00444;
	288	 1	 23.36	 7.00	 0.0	 0.0	 1	    1.08312	  -11.23007	 225.0	 1	    1.08889	    1.00444;
	289	 1	 25.80	 -4.90	 0.0	 0.0	 1	    1.04380	   -3.84919	 90.0	 1	    1.06667	    0.97778;
	290	 1	 33.50	 -2.70	 0.0	 0.0	 1	    1.02958	   -0.60846	 90.0	 1	    1.06667	    0.97778;
	291	 1	 52.26	 2.20	 0.0	 0.0	 1	    1.05424	   -2.19215	 225.0	 1	    1.08889	    0.88889;
	292	 1	 8.67	 2.90	 0.0	 0.0	 1	    1.07058	   -7.85544	 90.0	 1	    1.11111	    0.95556;
	293	 1	 15.30	 -1.90	 0.0	 0.0	 1	    1.00951	   -9.52107	 63.0	 1	    1.07937	    0.92063;
	294	 1	 0.00	 0.40	 0.0	 0.0	 1	    1.01958	   -9.54876	 63.0	 1	    1.06349	    0.93651;
	295	 1	 50.58	 5.20	 0.0	 0.0	 1	    1.01959	   -9.54914	 63.0	 1	    1.06349	    0.93651;
	296	 1	 0.00	 -0.90	 0.0	 0.0	 1	    1.02642	  -12.89371	 63.0	 1	    1.07937	    0.95238;
	297	 1	 23.96	 2.70	 0.0	 0.0	 1	    1.06295	   -0.12767	 225.0	 1	    1.08889	    0.88889;
	298	 1	 7.70	 -0.10	 0.0	 0.0	 1	    0.99992	  -14.19500	 63.0	 1	    1.07937	    0.95238;
	299	 1	 6.02	 0.50	 0.0	 0.0	 1	    0.99850	  -12.44826	 63.0	 1	    1.06349	    0.93651;
	300	 1	 10.00	 0.00	 0.0	 0.0	 1	    1.02707	   -2.69338	 63.0	 1	    1.06349	    0.93651;
	301	 1	 0.00	 0.10	 0.0	 0.0	 1	    1.09088	   11.00512	 90.0	 1	    1.11111	    0.95556;
	302	 1	 64.18	 18.60	 0.0	 0.0	 1	    1.08500	    7.64067	 225.0	 1	    1.08889	    0.88889;
	303	 1	 3.49	 0.40	 0.0	 0.0	 1	    1.02324	   -5.91033	 63.0	 1	    1.06349	    0.96825;
	304	 1	 14.81	 2.00	 0.0	 0.0	 1	    1.03832	   -9.93282	 63.0	 1	    1.06349	    0.93651;
	305	 1	 40.10	 6.10	 0.0	 0.0	 1	    1.03671	  -15.37570	 63.0	 1	    1.07937	    0.92063;
	306	 1	 30.80	 -4.20	 0.0	 0.0	 1	    1.02322	  -18.07559	 63.0	 1	    1.06349	    0.96825;
	307	 2	 0.00	 0.00	 0.0	 0.0	 1	    1.06349	    0.44953	 63.0	 1	    1.06349	    0.93651;
	308	 1	 14.00	 -0.30	 0.0	 0.0	 1	    1.01987	   -6.10658	 63.0	 1	    1.07937	    0.95238;
	309	 1	 21.30	 -2.90	 0.0	 0.0	 1	    1.01539	  -14.42997	 90.0	 1	    1.06667	    0.97778;
	310	 1	 0.50	 -0.00	 0.0	 0.0	 1	    1.04402	   -9.16407	 63.0	 1	    1.07937	    0.92063;
	311	 1	 10.84	 2.50	 0.0	 0.0	 1	    1.04653	  -20.87540	 63.0	 1	    1.06349	    0.96825;
	312	 1	 16.86	 4.50	 0.0	 0.0	 1	    1.04687	  -20.90041	 63.0	 1	    1.06349	    0.96825;
	313	 1	 0.70	 -0.30	 0.0	 0.0	 1	    1.04781	    8.24025	 90.0	 1	    1.06667	    0.97778;
	314	 1	 8.00	 -2.50	 0.0	 0.0	 1	    1.06196	    3.74487	 90.0	 1	    1.07778	    0.92222;
	315	 1	 34.68	 2.90	 0.0	 0.0	 1	    1.02976	   -8.81563	 63.0	 1	    1.07937	    0.92063;
	316	 1	 0.00	 0.00	 0.0	 0.0	 1	    1.06089	   -4.56530	 225.0	 1	    1.08889	    1.00000;
	317	 1	 21.20	 -1.20	 0.0	 0.0	 1	    1.06899	   -5.78032	 90.0	 1	    1.07778	    0.97778;
	318	 1	 38.77	 7.00	 0.0	 0.0	 1	    1.03387	   -4.62879	 63.0	 1	    1.07937	    0.92063;