%%%%%%%%%%%%%%%%%%%%%%%%%%%%%%%%%%%%%%%%%%%%%%%%%%%%%%%%%%%%%%%%%%%%%%%%%%%
%%%%                                                                  %%%%%
%%%%    IEEE PES Power Grid Library - Optimal Power Flow - v21.07     %%%%%
%%%%          (https://github.com/power-grid-lib/pglib-opf)           %%%%%
%%%%             Benchmark Group - Active Power Increase              %%%%%
%%%%                         29 - July - 2021                         %%%%%
%%%%                                                                  %%%%%
%%%%%%%%%%%%%%%%%%%%%%%%%%%%%%%%%%%%%%%%%%%%%%%%%%%%%%%%%%%%%%%%%%%%%%%%%%%
function mpc = pglib_opf_case9241_pegase__api
mpc.version = '2';
mpc.baseMVA = 100.0;

%% bus data
%	bus_i	type	Pd	Qd	Gs	Bs	area	Vm	Va	baseKV	zone	Vmax	Vmin
mpc.bus = [
	1	 1	 408.65	 98.50	 0.0	 16.61	 0	    1.00000	    0.00000	 220.0	 6	    1.10000	    0.90000;
	2	 2	 0.0	 0.0	 0.0	 0.0	 0	    1.00000	    0.00000	 154.0	 1	    1.10000	    0.90000;
	3	 1	 163.07	 48.80	 0.0	 4.69	 0	    1.00000	    0.00000	 220.0	 5	    1.10000	    0.90000;
	4	 1	 185.11	 23.40	 0.0	 2.1	 0	    1.00000	    0.00000	 220.0	 5	    1.10000	    0.90000;
	5	 1	 49.62	 14.00	 0.0	 13.34	 0	    1.00000	    0.00000	 220.0	 6	    1.10000	    0.90000;
	6	 2	 0.0	 0.0	 0.0	 0.0	 0	    1.00000	    0.00000	 380.0	 6	    1.10000	    0.90000;
	7	 1	 33.51	 10.30	 0.0	 0.65	 0	    1.00000	    0.00000	 110.0	 21	    1.10000	    0.90000;
	8	 2	 0.0	 0.0	 0.0	 0.0	 0	    1.00000	    0.00000	 154.0	 1	    1.10000	    0.90000;
	9	 1	 15.44	 2.00	 0.0	 1.91	 0	    1.00000	    0.00000	 154.0	 1	    1.10000	    0.90000;
	10	 1	 144.71	 24.70	 0.0	 12.44	 0	    1.00000	    0.00000	 220.0	 5	    1.10000	    0.90000;
	11	 1	 0.0	 0.0	 0.0	 0.0	 0	    1.00000	    0.00000	 150.0	 9	    1.10000	    0.90000;
	12	 1	 -6.11	 2.00	 0.0	 0.47	 0	    1.00000	    0.00000	 150.0	 9	    1.10000	    0.90000;
	13	 1	 -22.74	 -8.32	 0.0	 6.5	 0	    1.00000	    0.00000	 220.0	 6	    1.10000	    0.90000;
	14	 1	 14.58	 14.80	 0.0	 132.435168	 0	    1.00000	    0.00000	 380.0	 9	    1.30000	    0.70000;
	15	 1	 64.44	 26.70	 0.0	 12.84	 0	    1.00000	    0.00000	 220.0	 4	    1.10000	    0.90000;
	16	 1	 33.05	 4.30	 0.0	 5.15	 0	    1.00000	    0.00000	 154.0	 1	    1.10000	    0.90000;
	17	 1	 73.09	 12.10	 0.0	 2.18	 0	    1.00000	    0.00000	 220.0	 3	    1.10000	    0.90000;
	18	 2	 0.0	 0.0	 0.0	 0.0	 0	    1.00000	    0.00000	 380.0	 3	    1.10000	    0.90000;
	19	 1	 27.35	 7.50	 0.0	 2.39	 0	    1.00000	    0.00000	 110.0	 12	    1.10000	    0.90000;
	20	 1	 1.51	 0.20	 0.0	 4.93	 0	    1.00000	    0.00000	 154.0	 1	    1.10000	    0.90000;
	21	 1	 174.08	 39.30	 0.0	 30.71	 0	    1.00000	    0.00000	 220.0	 5	    1.10000	    0.90000;
	22	 1	 0.0	 -0.0	 0.0	 0.85	 0	    1.00000	    0.00000	 220.0	 5	    1.10000	    0.90000;
	23	 1	 21.19	 7.10	 0.0	 1.15	 0	    1.00000	    0.00000	 110.0	 19	    1.10000	    0.90000;
	24	 1	 18.60	 5.70	 0.0	 1.22	 0	    1.00000	    0.00000	 110.0	 21	    1.10000	    0.90000;
	25	 2	 0.0	 0.0	 0.0	 0.0	 0	    1.00000	    0.00000	 220.0	 3	    1.10000	    0.90000;
	26	 1	 180.67	 54.80	 0.0	 110.54	 0	    1.00000	    0.00000	 380.0	 5	    1.10000	    0.90000;
	27	 1	 -0.0	 -0.0	 0.0	 14.82	 0	    1.00000	    0.00000	 380.0	 13	    1.10000	    0.90000;
	28	 1	 0.0	 0.0	 0.0	 0.0	 0	    1.00000	    0.00000	 150.0	 9	    1.10000	    0.90000;
	29	 1	 165.12	 49.40	 0.0	 27.65	 0	    1.00000	    0.00000	 380.0	 5	    1.10000	    0.90000;
	30	 1	 -0.0	 0.0	 0.0	 0.56	 0	    1.00000	    0.00000	 150.0	 9	    1.10000	    0.90000;
	31	 1	 75.25	 43.20	 0.0	 6.3	 0	    1.00000	    0.00000	 150.0	 9	    1.30000	    0.70000;
	32	 2	 0.0	 0.0	 0.0	 0.0	 0	    1.00000	    0.00000	 220.0	 4	    1.10000	    0.90000;
	33	 2	 0.0	 0.0	 0.0	 0.0	 0	    1.00000	    0.00000	 220.0	 4	    1.10000	    0.90000;
	34	 1	 14.60	 4.90	 0.0	 1.8	 0	    1.00000	    0.00000	 110.0	 19	    1.10000	    0.90000;
	35	 1	 11.35	 3.50	 0.0	 0.31	 0	    1.00000	    0.00000	 110.0	 12	    1.10000	    0.90000;
	36	 1	 -0.0	 -0.0	 0.12	 15.34	 0	    1.00000	    0.00000	 220.0	 19	    1.10000	    0.90000;
	37	 1	 9.95	 2.60	 0.0	 2.0	 0	    1.00000	    0.00000	 110.0	 18	    1.10000	    0.90000;
	38	 1	 46.17	 12.80	 0.0	 13.3	 0	    1.00000	    0.00000	 220.0	 8	    1.10000	    0.90000;
	39	 2	 0.0	 0.0	 0.0	 0.0	 0	    1.00000	    0.00000	 150.0	 10	    1.10000	    0.90000;
	40	 1	 17.30	 4.54	 0.0	 0.1	 0	    1.00000	    0.00000	 110.0	 23	    1.10000	    0.90000;
	41	 1	 30.13	 4.00	 0.0	 4.23	 0	    1.00000	    0.00000	 154.0	 1	    1.10000	    0.90000;
	42	 1	 22.48	 7.90	 0.0	 26.89	 0	    1.00000	    0.00000	 380.0	 4	    1.10000	    0.90000;
	43	 1	 13.61	 1.80	 0.0	 2.03	 0	    1.00000	    0.00000	 154.0	 1	    1.10000	    0.90000;
	44	 1	 -0.0	 0.0	 0.0	 7.27	 0	    1.00000	    0.00000	 220.0	 5	    1.10000	    0.90000;
	45	 1	 10.92	 3.70	 0.0	 0.81	 0	    1.00000	    0.00000	 110.0	 19	    1.10000	    0.90000;
	46	 1	 10.81	 2.70	 0.0	 1.14	 0	    1.00000	    0.00000	 110.0	 18	    1.10000	    0.90000;
	47	 1	 6.31	 0.00	 0.0	 0.67	 0	    1.00000	    0.00000	 110.0	 18	    1.10000	    0.90000;
	48	 1	 3.13	 0.90	 0.0	 0.6	 0	    1.00000	    0.00000	 110.0	 15	    1.10000	    0.90000;
	49	 2	 0.0	 0.0	 0.0	 0.0	 0	    1.00000	    0.00000	 220.0	 6	    1.10000	    0.90000;
	50	 1	 52.70	 6.90	 0.0	 8.71	 0	    1.00000	    0.00000	 154.0	 1	    1.10000	    0.90000;
	51	 2	 0.0	 0.0	 0.0	 0.0	 0	    1.00000	    0.00000	 220.0	 4	    1.10000	    0.90000;
	52	 1	 137.80	 31.80	 0.0	 20.51	 0	    1.00000	    0.00000	 150.0	 8	    1.10000	    0.90000;
	53	 1	 52.54	 16.10	 0.0	 7.14	 0	    1.00000	    0.00000	 220.0	 5	    1.10000	    0.90000;
	54	 1	 110.50	 -26.80	 0.0	 16.37	 0	    1.00000	    0.00000	 220.0	 6	    1.10000	    0.90000;
	55	 1	 0.0	 -0.0	 0.0	 1.23	 0	    1.00000	    0.00000	 220.0	 3	    1.10000	    0.90000;
	56	 1	 151.19	 79.70	 0.0	 6.5	 0	    1.00000	    0.00000	 220.0	 3	    1.10000	    0.90000;
	57	 1	 23.33	 3.00	 0.0	 3.54	 0	    1.00000	    0.00000	 154.0	 1	    1.10000	    0.90000;
	58	 1	 0.0	 0.0	 0.0	 2.31	 0	    1.00000	    0.00000	 380.0	 5	    1.10000	    0.90000;
	59	 1	 128.73	 20.70	 0.0	 3.31	 0	    1.00000	    0.00000	 220.0	 5	    1.10000	    0.90000;
	60	 1	 0.24	 -1.66	 0.0	 0.65	 0	    1.00000	    0.00000	 110.0	 18	    1.10000	    0.90000;
	61	 1	 -0.0	 0.0	 0.0	 58.57	 0	    1.00000	    0.00000	 380.0	 3	    1.10000	    0.90000;
	62	 1	 -0.0	 0.0	 0.0	 1.34	 0	    1.00000	    0.00000	 110.0	 18	    1.10000	    0.90000;
	63	 1	 202.92	 110.20	 0.0	 21.25	 0	    1.00000	    0.00000	 380.0	 3	    1.10000	    0.90000;
	64	 1	 16.11	 5.50	 0.0	 1.31	 0	    1.00000	    0.00000	 110.0	 15	    1.10000	    0.90000;
	65	 1	 -18.52	 6.10	 0.0	 0.79	 0	    1.00000	    0.00000	 150.0	 9	    1.10000	    0.90000;
	66	 1	 4.98	 1.70	 0.0	 2.32	 0	    1.00000	    0.00000	 110.0	 19	    1.10000	    0.90000;
	67	 1	 0.0	 0.0	 0.099501	 82.133595	 0	    1.00000	    0.00000	 380.0	 18	    1.10000	    0.90000;
	68	 1	 11.67	 5.10	 0.0	 1.09	 0	    1.00000	    0.00000	 110.0	 18	    1.10000	    0.90000;
	69	 1	 67.90	 20.50	 0.0	 1.15	 0	    1.00000	    0.00000	 150.0	 8	    1.10000	    0.90000;
	70	 1	 0.0	 0.0	 0.0	 2.64	 0	    1.00000	    0.00000	 154.0	 1	    1.10000	    0.90000;
	71	 1	 136.40	 42.40	 0.0	 55.24	 0	    1.00000	    0.00000	 150.0	 8	    1.10000	    0.90000;
	72	 1	 6.91	 -4.60	 0.0	 5.75	 0	    1.00000	    0.00000	 220.0	 4	    1.10000	    0.90000;
	73	 1	 16.98	 5.20	 0.0	 0.11	 0	    1.00000	    0.00000	 110.0	 12	    1.10000	    0.90000;
	74	 1	 0.0	 0.0	 0.0	 0.0	 0	    1.00000	    0.00000	 150.0	 9	    1.10000	    0.90000;
	75	 1	 41.84	 6.10	 0.0	 1.17	 0	    1.00000	    0.00000	 220.0	 4	    1.10000	    0.90000;
	76	 1	 23.90	 10.70	 0.0	 14.21	 0	    1.00000	    0.00000	 220.0	 8	    1.10000	    0.90000;
	77	 1	 -0.0	 -0.0	 0.0	 0.73	 0	    1.00000	    0.00000	 220.0	 4	    1.10000	    0.90000;
	78	 1	 0.0	 -0.0	 0.0	 0.83	 0	    1.00000	    0.00000	 110.0	 18	    1.10000	    0.90000;
	79	 1	 149.89	 136.70	 0.0	 8.76	 0	    1.00000	    0.00000	 380.0	 3	    1.10000	    0.90000;
	80	 2	 0.0	 0.0	 0.0	 0.0	 0	    1.00000	    0.00000	 220.0	 23	    1.10000	    0.90000;
	81	 1	 73.18	 19.18	 0.0	 1.47	 0	    1.00000	    0.00000	 150.0	 1	    1.10000	    0.90000;
	82	 1	 23.78	 5.10	 0.0	 0.69	 0	    1.00000	    0.00000	 110.0	 1	    1.10000	    0.90000;
	83	 1	 0.0	 0.0	 0.0	 6.62	 0	    1.00000	    0.00000	 220.0	 3	    1.10000	    0.90000;
	84	 1	 1.08	 0.30	 0.0	 0.19	 0	    1.00000	    0.00000	 110.0	 19	    1.10000	    0.90000;
	85	 1	 22.57	 3.00	 0.0	 5.74	 0	    1.00000	    0.00000	 154.0	 1	    1.10000	    0.90000;
	86	 1	 0.0	 0.0	 0.0	 0.12	 0	    1.00000	    0.00000	 150.0	 9	    1.10000	    0.90000;
	87	 1	 23.24	 5.10	 0.0	 0.5	 0	    1.00000	    0.00000	 110.0	 18	    1.10000	    0.90000;
	88	 1	 77.73	 28.80	 0.0	 11.0	 0	    1.00000	    0.00000	 220.0	 6	    1.10000	    0.90000;
	89	 1	 0.0	 0.0	 0.199111	 4.530599	 0	    1.00000	    0.00000	 380.0	 2	    1.10000	    0.90000;
	90	 1	 392.29	 115.39	 0.0	 3.95	 0	    1.00000	    0.00000	 220.0	 5	    1.10000	    0.90000;
	91	 1	 -0.0	 0.0	 0.0	 0.02	 0	    1.00000	    0.00000	 150.0	 8	    1.10000	    0.90000;
	92	 1	 208.32	 73.30	 0.0	 20.75	 0	    1.00000	    0.00000	 380.0	 3	    1.10000	    0.90000;
	93	 1	 18.92	 6.30	 0.0	 0.26	 0	    1.00000	    0.00000	 110.0	 19	    1.10000	    0.90000;
	94	 1	 35.79	 12.00	 0.0	 0.65	 0	    1.00000	    0.00000	 110.0	 19	    1.10000	    0.90000;
	95	 1	 43.68	 25.00	 0.0	 9.82	 0	    1.00000	    0.00000	 150.0	 9	    1.10000	    0.90000;
	96	 1	 208.61	 53.37	 0.0	 4.58	 0	    1.00000	    0.00000	 220.0	 5	    1.10000	    0.90000;
	97	 1	 0.0	 0.0	 0.0	 9.38	 0	    1.00000	    0.00000	 380.0	 1	    1.10000	    0.90000;
	98	 1	 97.95	 25.50	 0.0	 3.11	 0	    1.00000	    0.00000	 220.0	 3	    1.10000	    0.90000;
	99	 1	 176.30	 -58.90	 0.0	 24.77	 0	    1.00000	    0.00000	 380.0	 6	    1.10000	    0.90000;
	100	 1	 38.81	 22.30	 0.0	 0.0	 0	    1.00000	    0.00000	 150.0	 9	    1.10000	    0.90000;
	101	 1	 -0.0	 0.0	 0.0	 0.29	 0	    1.00000	    0.00000	 150.0	 9	    1.10000	    0.90000;
	102	 1	 0.0	 -0.0	 0.0	 3.77	 0	    1.00000	    0.00000	 220.0	 6	    1.10000	    0.90000;
	103	 1	 70.27	 40.30	 0.0	 5.43	 0	    1.00000	    0.00000	 150.0	 9	    1.10000	    0.90000;
	104	 1	 51.36	 -8.80	 0.0	 2.15	 0	    1.00000	    0.00000	 220.0	 6	    1.10000	    0.90000;
	105	 1	 -0.0	 -0.0	 0.0	 82.55	 0	    1.00000	    0.00000	 380.0	 6	    1.10000	    0.90000;
	106	 1	 0.0	 -0.0	 0.0	 31.19	 0	    1.00000	    0.00000	 380.0	 23	    1.30000	    0.70000;
	107	 2	 0.0	 0.0	 0.0	 0.0	 0	    1.00000	    0.00000	 380.0	 3	    1.30000	    0.70000;
	108	 1	 4.10	 1.30	 0.0	 0.4	 0	    1.00000	    0.00000	 110.0	 18	    1.10000	    0.90000;
	109	 1	 147.95	 19.50	 0.0	 4.9	 0	    1.00000	    0.00000	 154.0	 1	    1.10000	    0.90000;
	110	 1	 0.0	 0.0	 0.0	 0.0	 0	    1.00000	    0.00000	 150.0	 9	    1.10000	    0.90000;
	111	 1	 65.95	 36.00	 0.0	 3.09	 0	    1.00000	    0.00000	 220.0	 11	    1.10000	    0.90000;
	112	 1	 0.0	 0.0	 0.0	 3.24	 0	    1.00000	    0.00000	 220.0	 3	    1.10000	    0.90000;
	113	 1	 -0.0	 -0.0	 0.0	 6.532711	 0	    1.00000	    0.00000	 380.0	 5	    1.10000	    0.90000;
	114	 1	 60.15	 7.90	 0.0	 4.21	 0	    1.00000	    0.00000	 154.0	 1	    1.10000	    0.90000;
	115	 1	 0.0	 -0.0	 0.0	 4.21	 0	    1.00000	    0.00000	 220.0	 5	    1.10000	    0.90000;
	116	 1	 1.94	 0.70	 0.0	 0.3	 0	    1.00000	    0.00000	 110.0	 19	    1.10000	    0.90000;
	117	 1	 43.24	 16.00	 0.0	 0.52	 0	    1.00000	    0.00000	 110.0	 18	    1.10000	    0.90000;
	118	 1	 -0.0	 0.0	 0.0	 36.562834	 0	    1.00000	    0.00000	 380.0	 5	    1.10000	    0.90000;
	119	 1	 0.0	 0.0	 0.0	 0.09	 0	    1.00000	    0.00000	 150.0	 9	    1.10000	    0.90000;
	120	 1	 151.84	 20.10	 0.0	 13.81	 0	    1.00000	    0.00000	 154.0	 1	    1.10000	    0.90000;
	121	 1	 48.76	 14.10	 0.0	 0.19	 0	    1.00000	    0.00000	 110.0	 15	    1.10000	    0.90000;
	122	 1	 -0.0	 0.0	 0.0	 5.75	 0	    1.00000	    0.00000	 220.0	 3	    1.10000	    0.90000;
	123	 2	 0.0	 0.0	 0.0	 0.0	 0	    1.00000	    0.00000	 220.0	 11	    1.10000	    0.90000;
	124	 2	 0.0	 0.0	 0.0	 0.0	 0	    1.00000	    0.00000	 220.0	 5	    1.10000	    0.90000;
	125	 1	 3.69	 2.68	 0.0	 1.46	 0	    1.00000	    0.00000	 110.0	 18	    1.10000	    0.90000;
	126	 1	 0.0	 -0.0	 0.0	 2.64	 0	    1.00000	    0.00000	 154.0	 1	    1.10000	    0.90000;
	127	 1	 -0.0	 -0.0	 0.0	 4.3	 0	    1.00000	    0.00000	 220.0	 6	    1.10000	    0.90000;
	128	 1	 25.63	 12.70	 0.0	 0.52	 0	    1.00000	    0.00000	 220.0	 5	    1.10000	    0.90000;
	129	 1	 131.64	 7.40	 0.0	 1.34	 0	    1.00000	    0.00000	 220.0	 3	    1.10000	    0.90000;
	130	 1	 -0.0	 0.0	 0.135375	 47.750675	 0	    1.00000	    0.00000	 380.0	 10	    1.10000	    0.90000;
	131	 1	 51.13	 16.40	 0.0	 4.08	 0	    1.00000	    0.00000	 110.0	 22	    1.10000	    0.90000;
	132	 1	 0.0	 -0.0	 0.0	 21.39	 0	    1.00000	    0.00000	 380.0	 1	    1.10000	    0.90000;
	133	 1	 41.19	 12.50	 0.0	 6.28	 0	    1.00000	    0.00000	 150.0	 8	    1.10000	    0.90000;
	134	 1	 58.53	 7.80	 0.0	 94.9	 0	    1.00000	    0.00000	 400.0	 1	    1.10000	    0.90000;
	135	 1	 141.04	 84.90	 0.0	 4.22	 0	    1.00000	    0.00000	 220.0	 7	    1.10000	    0.90000;
	136	 1	 8.54	 2.60	 0.0	 0.74	 0	    1.00000	    0.00000	 110.0	 12	    1.10000	    0.90000;
	137	 1	 45.47	 74.61	 0.0	 37.58	 0	    1.00000	    0.00000	 150.0	 1	    1.10000	    0.90000;
	138	 1	 -75.38	 7.80	 0.0	 29.9	 0	    1.00000	    0.00000	 380.0	 10	    1.10000	    0.90000;
	139	 1	 -0.0	 -0.0	 0.0	 36.92	 0	    1.00000	    0.00000	 380.0	 8	    1.10000	    0.90000;
	140	 1	 0.0	 0.0	 0.0	 4.14	 0	    1.00000	    0.00000	 220.0	 8	    1.10000	    0.90000;
	141	 2	 0.0	 0.0	 0.0	 0.0	 0	    1.00000	    0.00000	 220.0	 13	    1.10000	    0.90000;
	142	 2	 0.0	 0.0	 0.0	 0.0	 0	    1.00000	    0.00000	 220.0	 6	    1.10000	    0.90000;
	143	 1	 0.0	 0.0	 0.0	 0.0	 0	    1.00000	    0.00000	 150.0	 8	    1.10000	    0.90000;
	144	 1	 0.0	 0.0	 0.0	 98.53	 0	    1.00000	    0.00000	 380.0	 14	    1.10000	    0.90000;
	145	 1	 41.40	 5.60	 0.0	 7.64	 0	    1.00000	    0.00000	 220.0	 5	    1.10000	    0.90000;
	146	 1	 291.15	 65.70	 0.0	 0.0	 0	    1.00000	    0.00000	 120.0	 20	    1.30000	    0.70000;
	147	 2	 0.0	 0.0	 0.0	 0.0	 0	    1.00000	    0.00000	 220.0	 7	    1.10000	    0.90000;
	148	 1	 34.92	 12.00	 0.0	 6.1	 0	    1.00000	    0.00000	 220.0	 5	    1.10000	    0.90000;
	149	 1	 108.10	 45.10	 0.0	 1.11	 0	    1.00000	    0.00000	 380.0	 6	    1.10000	    0.90000;
	150	 2	 0.0	 0.0	 0.0	 0.0	 0	    1.00000	    0.00000	 220.0	 5	    1.10000	    0.90000;
	151	 2	 0.0	 0.0	 0.0	 0.0	 0	    1.00000	    0.00000	 154.0	 1	    1.10000	    0.90000;
	152	 1	 7.56	 1.00	 0.0	 4.69	 0	    1.00000	    0.00000	 154.0	 1	    1.10000	    0.90000;
	153	 1	 -0.0	 0.0	 0.0	 0.56	 0	    1.00000	    0.00000	 150.0	 7	    1.10000	    0.90000;
	154	 1	 0.0	 0.0	 0.0	 1.29	 0	    1.00000	    0.00000	 110.0	 12	    1.10000	    0.90000;
	155	 1	 -0.0	 -0.0	 0.0	 1.7	 0	    1.00000	    0.00000	 110.0	 21	    1.10000	    0.90000;
	156	 1	 43.56	 25.00	 0.0	 1.14	 0	    1.00000	    0.00000	 150.0	 9	    1.10000	    0.90000;
	157	 1	 9.95	 3.30	 0.0	 1.2	 0	    1.00000	    0.00000	 110.0	 19	    1.10000	    0.90000;
	158	 1	 179.27	 60.30	 0.0	 0.57	 0	    1.00000	    0.00000	 220.0	 3	    1.10000	    0.90000;
	159	 1	 0.0	 -0.0	 0.0	 0.1	 0	    1.00000	    0.00000	 150.0	 9	    1.10000	    0.90000;
	160	 1	 85.75	 11.30	 0.0	 4.92	 0	    1.00000	    0.00000	 154.0	 1	    1.10000	    0.90000;
	161	 1	 -0.0	 -0.0	 0.0	 0.16	 0	    1.00000	    0.00000	 150.0	 9	    1.10000	    0.90000;
	162	 1	 0.0	 0.0	 0.0	 66.65	 0	    1.00000	    0.00000	 380.0	 6	    1.10000	    0.90000;
	163	 1	 159.57	 32.73	 0.0	 8.34	 0	    1.00000	    0.00000	 220.0	 5	    1.10000	    0.90000;
	164	 1	 0.0	 -0.0	 0.0	 5.17	 0	    1.00000	    0.00000	 150.0	 8	    1.10000	    0.90000;
	165	 1	 26.80	 -3.70	 0.0	 51.261678	 0	    1.00000	    0.00000	 380.0	 9	    1.10000	    0.90000;
	166	 2	 0.0	 0.0	 0.0	 0.0	 0	    1.00000	    0.00000	 220.0	 3	    1.10000	    0.90000;
	167	 1	 278.08	 131.10	 0.0	 1.08	 0	    1.00000	    0.00000	 220.0	 3	    1.10000	    0.90000;
	168	 1	 18.03	 2.40	 0.0	 6.09	 0	    1.00000	    0.00000	 154.0	 1	    1.10000	    0.90000;
	169	 1	 0.0	 0.0	 0.0	 1.91	 0	    1.00000	    0.00000	 150.0	 9	    1.10000	    0.90000;
	170	 1	 -0.0	 -0.0	 0.0	 2.35	 0	    1.00000	    0.00000	 220.0	 1	    1.10000	    0.90000;
	171	 1	 108.86	 13.20	 0.0	 5.24	 0	    1.00000	    0.00000	 220.0	 5	    1.10000	    0.90000;
	172	 1	 120.63	 10.96	 0.0	 4.22	 0	    1.00000	    0.00000	 220.0	 4	    1.10000	    0.90000;
	173	 1	 90.38	 -5.05	 0.0	 8.49	 0	    1.00000	    0.00000	 220.0	 13	    1.10000	    0.90000;
	174	 1	 370.50	 -17.00	 0.0	 9.91	 0	    1.00000	    0.00000	 220.0	 5	    1.10000	    0.90000;
	175	 1	 10.70	 3.20	 0.0	 0.67	 0	    1.00000	    0.00000	 110.0	 12	    1.10000	    0.90000;
	176	 1	 -0.69	 -5.46	 0.0	 5.07	 0	    1.00000	    0.00000	 150.0	 9	    1.10000	    0.90000;
	177	 1	 102.49	 36.20	 0.0	 16.46	 0	    1.00000	    0.00000	 220.0	 10	    1.10000	    0.90000;
	178	 1	 87.57	 48.00	 0.0	 0.03	 0	    1.00000	    0.00000	 150.0	 9	    1.10000	    0.90000;
	179	 2	 0.0	 0.0	 0.0	 0.0	 0	    1.00000	    0.00000	 380.0	 4	    1.10000	    0.90000;
	180	 1	 0.0	 0.0	 0.0	 0.54	 0	    1.00000	    0.00000	 110.0	 21	    1.10000	    0.90000;
	181	 1	 59.35	 16.90	 0.0	 3.37	 0	    1.00000	    0.00000	 110.0	 22	    1.10000	    0.90000;
	182	 1	 20.86	 26.00	 0.0	 0.69	 0	    1.00000	    0.00000	 220.0	 3	    1.10000	    0.90000;
	183	 1	 0.0	 0.0	 0.0	 1.83	 0	    1.00000	    0.00000	 150.0	 9	    1.10000	    0.90000;
	184	 1	 -0.0	 -0.0	 0.0	 2.42	 0	    1.00000	    0.00000	 220.0	 5	    1.10000	    0.90000;
	185	 1	 22.57	 3.00	 0.0	 4.11	 0	    1.00000	    0.00000	 154.0	 1	    1.10000	    0.90000;
	186	 1	 21.51	 6.60	 0.0	 0.56	 0	    1.00000	    0.00000	 110.0	 21	    1.10000	    0.90000;
	187	 1	 61.73	 2.00	 0.0	 1.48	 0	    1.00000	    0.00000	 110.0	 22	    1.10000	    0.90000;
	188	 1	 39.78	 13.90	 0.0	 3.3	 0	    1.00000	    0.00000	 220.0	 5	    1.10000	    0.90000;
	189	 1	 -15.04	 -5.12	 0.0	 0.43	 0	    1.00000	    0.00000	 110.0	 18	    1.10000	    0.90000;
	190	 2	 0.0	 0.0	 0.0	 0.0	 0	    1.00000	    0.00000	 110.0	 19	    1.10000	    0.90000;
	191	 1	 0.0	 -0.0	 0.0	 14.19	 0	    1.00000	    0.00000	 220.0	 6	    1.10000	    0.90000;
	192	 2	 0.0	 0.0	 0.0	 0.0	 0	    1.00000	    0.00000	 380.0	 3	    1.10000	    0.90000;
	193	 1	 129.48	 3.70	 0.0	 3.33	 0	    1.00000	    0.00000	 220.0	 3	    1.10000	    0.90000;
	194	 2	 0.0	 0.0	 0.0	 0.0	 0	    1.00000	    0.00000	 150.0	 8	    1.10000	    0.90000;
	195	 1	 78.99	 21.55	 0.0	 8.52	 0	    1.00000	    0.00000	 220.0	 5	    1.10000	    0.90000;
	196	 1	 0.0	 -0.0	 0.0	 12.48	 0	    1.00000	    0.00000	 220.0	 5	    1.10000	    0.90000;
	197	 2	 0.0	 0.0	 0.0	 0.0	 0	    1.00000	    0.00000	 380.0	 3	    1.10000	    0.90000;
	198	 1	 42.92	 11.80	 0.0	 1.44	 0	    1.00000	    0.00000	 220.0	 5	    1.10000	    0.90000;
	199	 1	 93.74	 28.40	 0.0	 1.34	 0	    1.00000	    0.00000	 150.0	 8	    1.10000	    0.90000;
	200	 1	 24.21	 2.10	 0.0	 0.19	 0	    1.00000	    0.00000	 150.0	 1	    1.10000	    0.90000;
	201	 2	 0.0	 0.0	 0.0	 0.0	 0	    1.00000	    0.00000	 220.0	 4	    1.10000	    0.90000;
	202	 1	 119.76	 32.70	 0.0	 15.4	 0	    1.00000	    0.00000	 220.0	 14	    1.10000	    0.90000;
	203	 1	 19.65	 2.60	 0.0	 12.38	 0	    1.00000	    0.00000	 154.0	 1	    1.10000	    0.90000;
	204	 1	 -0.0	 -0.0	 0.181549	 14.690889	 0	    1.00000	    0.00000	 220.0	 18	    1.10000	    0.90000;
	205	 1	 49.84	 18.20	 0.0	 1.29	 0	    1.00000	    0.00000	 150.0	 8	    1.10000	    0.90000;
	206	 1	 36.76	 12.30	 0.0	 0.23	 0	    1.00000	    0.00000	 110.0	 19	    1.10000	    0.90000;
	207	 1	 347.72	 84.40	 0.0	 1.34	 0	    1.00000	    0.00000	 220.0	 5	    1.10000	    0.90000;
	208	 1	 36.11	 10.00	 0.0	 1.36	 0	    1.00000	    0.00000	 110.0	 3	    1.10000	    0.90000;
	209	 2	 0.0	 0.0	 0.0	 0.0	 0	    1.00000	    0.00000	 110.0	 12	    1.10000	    0.90000;
	210	 1	 0.0	 0.0	 0.0	 0.0	 0	    1.00000	    0.00000	 150.0	 9	    1.10000	    0.90000;
	211	 1	 81.30	 19.20	 0.0	 1.9	 0	    1.00000	    0.00000	 110.0	 8	    1.10000	    0.90000;
	212	 1	 103.34	 24.54	 0.0	 2.85	 0	    1.00000	    0.00000	 220.0	 13	    1.10000	    0.90000;
	213	 1	 40.32	 10.90	 0.0	 0.63	 0	    1.00000	    0.00000	 110.0	 1	    1.10000	    0.90000;
	214	 2	 0.0	 0.0	 0.0	 0.0	 0	    1.00000	    0.00000	 380.0	 13	    1.10000	    0.90000;
	215	 1	 -0.0	 0.0	 0.0	 4.93	 0	    1.00000	    0.00000	 110.0	 18	    1.10000	    0.90000;
	216	 1	 168.04	 54.70	 0.0	 2.21	 0	    1.00000	    0.00000	 220.0	 5	    1.10000	    0.90000;
	217	 1	 113.61	 0.10	 0.0	 7.36	 0	    1.00000	    0.00000	 220.0	 5	    1.10000	    0.90000;
	218	 1	 75.41	 15.12	 0.0	 2.23	 0	    1.00000	    0.00000	 220.0	 5	    1.10000	    0.90000;
	219	 2	 0.0	 0.0	 0.0	 0.0	 0	    1.00000	    0.00000	 380.0	 7	    1.10000	    0.90000;
	220	 2	 0.0	 0.0	 0.0	 0.0	 0	    1.00000	    0.00000	 380.0	 6	    1.10000	    0.90000;
	221	 2	 0.0	 0.0	 0.0	 0.0	 0	    1.00000	    0.00000	 380.0	 5	    1.10000	    0.90000;
	222	 2	 0.0	 0.0	 0.0	 0.0	 0	    1.00000	    0.00000	 150.0	 1	    1.10000	    0.90000;
	223	 1	 29.19	 8.80	 0.0	 1.84	 0	    1.00000	    0.00000	 110.0	 21	    1.10000	    0.90000;
	224	 1	 2.81	 0.50	 0.0	 0.14	 0	    1.00000	    0.00000	 110.0	 18	    1.10000	    0.90000;
	225	 1	 0.0	 0.0	 0.0	 1.15	 0	    1.00000	    0.00000	 220.0	 5	    1.10000	    0.90000;
	226	 1	 15.79	 4.80	 0.0	 1.02	 0	    1.00000	    0.00000	 110.0	 12	    1.10000	    0.90000;
	227	 1	 -0.0	 0.0	 0.0	 2.55	 0	    1.00000	    0.00000	 220.0	 7	    1.10000	    0.90000;
	228	 1	 -23.43	 57.40	 0.0	 0.0	 0	    1.00000	    0.00000	 150.0	 2	    1.10000	    0.90000;
	229	 1	 460.70	 93.70	 0.0	 80.94	 0	    1.00000	    0.00000	 380.0	 6	    1.10000	    0.90000;
	230	 1	 164.23	 22.52	 0.0	 7.87	 0	    1.00000	    0.00000	 220.0	 4	    1.10000	    0.90000;
	231	 1	 -0.13	 -1.00	 0.0	 0.0	 0	    1.00000	    0.00000	 110.0	 8	    1.10000	    0.90000;
	232	 1	 0.0	 0.0	 0.0	 0.7	 0	    1.00000	    0.00000	 150.0	 9	    1.10000	    0.90000;
	233	 1	 2.70	 3.80	 0.0	 0.15	 0	    1.00000	    0.00000	 110.0	 18	    1.10000	    0.90000;
	234	 1	 18.03	 2.40	 0.0	 0.87	 0	    1.00000	    0.00000	 154.0	 1	    1.10000	    0.90000;
	235	 1	 36.76	 4.40	 0.0	 1.25	 0	    1.00000	    0.00000	 110.0	 22	    1.10000	    0.90000;
	236	 1	 49.51	 7.00	 0.0	 1.05	 0	    1.00000	    0.00000	 220.0	 4	    1.10000	    0.90000;
	237	 1	 0.0	 -0.0	 0.0	 30.97	 0	    1.00000	    0.00000	 380.0	 3	    1.10000	    0.90000;
	238	 1	 0.0	 -0.0	 0.0	 19.36	 0	    1.00000	    0.00000	 220.0	 6	    1.10000	    0.90000;
	239	 2	 0.0	 0.0	 0.0	 0.0	 0	    1.00000	    0.00000	 110.0	 19	    1.10000	    0.90000;
	240	 1	 0.0	 0.0	 0.0	 0.0	 0	    1.00000	    0.00000	 150.0	 9	    1.10000	    0.90000;
	241	 1	 -0.0	 0.0	 0.0	 3.95	 0	    1.00000	    0.00000	 220.0	 3	    1.10000	    0.90000;
	242	 1	 181.32	 18.20	 0.0	 5.97	 0	    1.00000	    0.00000	 220.0	 3	    1.10000	    0.90000;
	243	 1	 0.00	 -0.01	 0.0	 13.49	 0	    1.00000	    0.00000	 150.0	 8	    1.10000	    0.90000;
	244	 1	 -0.0	 -0.0	 0.0	 0.68	 0	    1.00000	    0.00000	 150.0	 8	    1.10000	    0.90000;
	245	 1	 17.95	 5.50	 0.0	 1.34	 0	    1.00000	    0.00000	 110.0	 21	    1.10000	    0.90000;
	246	 2	 0.0	 0.0	 0.0	 0.0	 0	    1.00000	    0.00000	 220.0	 1	    1.10000	    0.90000;
	247	 1	 0.0	 0.0	 0.0	 0.72	 0	    1.00000	    0.00000	 110.0	 18	    1.10000	    0.90000;
	248	 2	 0.0	 0.0	 0.0	 0.0	 0	    1.00000	    0.00000	 380.0	 13	    1.10000	    0.90000;
	249	 1	 -0.0	 -0.0	 0.0	 26.3	 0	    1.00000	    0.00000	 220.0	 4	    1.10000	    0.90000;
	250	 1	 0.0	 0.0	 0.0	 13.85	 0	    1.00000	    0.00000	 380.0	 3	    1.10000	    0.90000;
	251	 1	 127.86	 16.90	 0.0	 8.02	 0	    1.00000	    0.00000	 154.0	 1	    1.10000	    0.90000;
	252	 1	 -0.0	 0.0	 0.0	 2.66	 0	    1.00000	    0.00000	 220.0	 3	    1.10000	    0.90000;
	253	 1	 0.0	 -0.0	 0.0	 4.06	 0	    1.00000	    0.00000	 220.0	 1	    1.10000	    0.90000;
	254	 1	 -0.0	 -0.0	 0.135493	 12.74062	 0	    1.00000	    0.00000	 380.0	 21	    1.10000	    0.90000;
	255	 2	 0.0	 0.0	 0.0	 0.0	 0	    1.00000	    0.00000	 380.0	 16	    1.10000	    0.90000;
	256	 1	 0.0	 -0.0	 0.0	 7.09	 0	    1.00000	    0.00000	 220.0	 6	    1.10000	    0.90000;
	257	 1	 123.00	 24.50	 0.0	 6.72	 0	    1.00000	    0.00000	 220.0	 4	    1.10000	    0.90000;
	258	 1	 95.03	 12.60	 0.0	 22.25	 0	    1.00000	    0.00000	 154.0	 1	    1.10000	    0.90000;
	259	 1	 46.08	 12.11	 0.0	 14.84	 0	    1.00000	    0.00000	 150.0	 9	    1.10000	    0.90000;
	260	 1	 234.13	 40.50	 0.0	 5.91	 0	    1.00000	    0.00000	 220.0	 3	    1.10000	    0.90000;
	261	 1	 -0.0	 0.0	 0.0	 1.29	 0	    1.00000	    0.00000	 380.0	 10	    1.10000	    0.90000;
	262	 2	 0.0	 0.0	 0.0	 0.0	 0	    1.00000	    0.00000	 220.0	 13	    1.10000	    0.90000;
	263	 2	 0.0	 0.0	 0.0	 0.0	 0	    1.00000	    0.00000	 154.0	 1	    1.10000	    0.90000;
	264	 1	 41.84	 9.00	 0.0	 0.57	 0	    1.00000	    0.00000	 220.0	 4	    1.10000	    0.90000;
	265	 1	 378.41	 29.30	 0.0	 19.31	 0	    1.00000	    0.00000	 220.0	 11	    1.10000	    0.90000;
	266	 1	 0.0	 -0.0	 0.0	 140.96	 0	    1.00000	    0.00000	 380.0	 4	    1.10000	    0.90000;
	267	 1	 112.10	 2.70	 0.0	 3.33	 0	    1.00000	    0.00000	 220.0	 4	    1.10000	    0.90000;
	268	 1	 -0.13	 -1.00	 0.0	 0.0	 0	    1.00000	    0.00000	 220.0	 8	    1.10000	    0.90000;
	269	 1	 0.0	 -0.0	 0.0	 0.66	 0	    1.00000	    0.00000	 110.0	 22	    1.10000	    0.90000;
	270	 1	 -0.0	 0.0	 0.0	 6.34	 0	    1.00000	    0.00000	 380.0	 1	    1.10000	    0.90000;
	271	 1	 104.43	 26.80	 0.0	 0.0	 0	    1.00000	    0.00000	 150.0	 2	    1.10000	    0.90000;
	272	 1	 0.0	 0.0	 0.0	 19.54	 0	    1.00000	    0.00000	 150.0	 9	    1.10000	    0.90000;
	273	 1	 -0.0	 -0.0	 0.0	 14.87	 0	    1.00000	    0.00000	 220.0	 23	    1.10000	    0.90000;
	274	 1	 20.54	 6.00	 0.0	 0.25	 0	    1.00000	    0.00000	 110.0	 21	    1.10000	    0.90000;
	275	 1	 110.26	 25.30	 0.0	 1.11	 0	    1.00000	    0.00000	 150.0	 8	    1.10000	    0.90000;
	276	 1	 -0.0	 0.0	 0.0	 2.44	 0	    1.00000	    0.00000	 220.0	 3	    1.10000	    0.90000;
	277	 1	 0.0	 0.0	 0.0	 0.0	 0	    1.00000	    0.00000	 150.0	 9	    1.10000	    0.90000;
	278	 2	 0.0	 0.0	 0.0	 0.0	 0	    1.00000	    0.00000	 110.0	 18	    1.10000	    0.90000;
	279	 1	 8.97	 3.00	 0.0	 0.99	 0	    1.00000	    0.00000	 110.0	 19	    1.10000	    0.90000;
	280	 1	 129.16	 29.60	 0.0	 5.34	 0	    1.00000	    0.00000	 220.0	 5	    1.10000	    0.90000;
	281	 1	 -0.0	 -0.0	 0.0	 18.07	 0	    1.00000	    0.00000	 380.0	 8	    1.10000	    0.90000;
	282	 2	 0.0	 0.0	 0.0	 0.0	 0	    1.00000	    0.00000	 380.0	 18	    1.10000	    0.90000;
	283	 1	 29.51	 11.90	 0.0	 1.17	 0	    1.00000	    0.00000	 220.0	 5	    1.10000	    0.90000;
	284	 1	 191.20	 -3.40	 0.0	 19.21	 0	    1.00000	    0.00000	 220.0	 4	    1.10000	    0.90000;
	285	 1	 0.0	 0.0	 0.029916	 18.291787	 0	    1.00000	    0.00000	 380.0	 1	    1.10000	    0.90000;
	286	 1	 109.72	 14.50	 0.0	 1.94	 0	    1.00000	    0.00000	 154.0	 1	    1.10000	    0.90000;
	287	 1	 191.26	 66.90	 0.0	 71.03	 0	    1.00000	    0.00000	 380.0	 16	    1.10000	    0.90000;
	288	 1	 0.0	 0.0	 0.0	 0.3	 0	    1.00000	    0.00000	 150.0	 9	    1.10000	    0.90000;
	289	 2	 0.0	 0.0	 0.0	 0.0	 0	    1.00000	    0.00000	 220.0	 6	    1.10000	    0.90000;
	290	 1	 57.73	 18.70	 0.0	 1.64	 0	    1.00000	    0.00000	 220.0	 20	    1.10000	    0.90000;
	291	 1	 0.0	 -0.0	 0.0	 12.73	 0	    1.00000	    0.00000	 220.0	 14	    1.10000	    0.90000;
	292	 1	 14.92	 1.40	 0.0	 0.7	 0	    1.00000	    0.00000	 220.0	 5	    1.10000	    0.90000;
	293	 1	 91.90	 67.00	 0.0	 0.18	 0	    1.00000	    0.00000	 150.0	 9	    1.10000	    0.90000;
	294	 2	 0.0	 0.0	 0.0	 0.0	 0	    1.00000	    0.00000	 400.0	 1	    1.10000	    0.90000;
	295	 1	 0.0	 0.0	 0.0	 0.08	 0	    1.00000	    0.00000	 220.0	 6	    1.10000	    0.90000;
	296	 1	 204.43	 76.70	 0.0	 3.24	 0	    1.00000	    0.00000	 220.0	 3	    1.10000	    0.90000;
	297	 1	 25.63	 9.40	 0.0	 1.45	 0	    1.00000	    0.00000	 150.0	 8	    1.10000	    0.90000;
	298	 1	 10.01	 -21.00	 0.0	 8.59	 0	    1.00000	    0.00000	 220.0	 11	    1.10000	    0.90000;
	299	 2	 0.0	 0.0	 0.0	 0.0	 0	    1.00000	    0.00000	 380.0	 4	    1.10000	    0.90000;
	300	 1	 0.0	 0.0	 0.0	 1.05	 0	    1.00000	    0.00000	 150.0	 9	    1.10000	    0.90000;
	301	 1	 -14.85	 -4.95	 0.0	 0.37	 0	    1.00000	    0.00000	 110.0	 18	    1.10000	    0.90000;
	302	 1	 22.57	 3.00	 0.0	 2.65	 0	    1.00000	    0.00000	 154.0	 1	    1.10000	    0.90000;
	303	 1	 466.21	 121.60	 0.0	 1.14	 0	    1.00000	    0.00000	 220.0	 21	    1.10000	    0.90000;
	304	 1	 2.38	 0.50	 0.0	 0.21	 0	    1.00000	    0.00000	 150.0	 10	    1.10000	    0.90000;
	305	 1	 111.23	 12.00	 0.0	 0.63	 0	    1.00000	    0.00000	 220.0	 5	    1.10000	    0.90000;
	306	 1	 -0.0	 0.0	 0.0	 4.76	 0	    1.00000	    0.00000	 220.0	 5	    1.10000	    0.90000;
	307	 1	 0.0	 0.0	 0.0	 25.85	 0	    1.00000	    0.00000	 380.0	 1	    1.10000	    0.90000;
	308	 1	 0.0	 0.0	 0.0	 0.0	 0	    1.00000	    0.00000	 150.0	 9	    1.30000	    0.70000;
	309	 2	 0.0	 0.0	 0.0	 0.0	 0	    1.00000	    0.00000	 220.0	 3	    1.10000	    0.90000;
	310	 2	 0.0	 0.0	 0.0	 0.0	 0	    1.00000	    0.00000	 380.0	 9	    1.30000	    0.70000;
	311	 1	 45.41	 17.20	 0.0	 1.31	 0	    1.00000	    0.00000	 150.0	 8	    1.10000	    0.90000;
	312	 1	 -0.16	 -2.91	 0.0	 0.43	 0	    1.00000	    0.00000	 110.0	 8	    1.10000	    0.90000;