%%%%%%%%%%%%%%%%%%%%%%%%%%%%%%%%%%%%%%%%%%%%%%%%%%%%%%%%%%%%%%%%%%%%%%%%%%%
%%%%                                                                  %%%%%
%%%%    IEEE PES Power Grid Library - Optimal Power Flow - v23.07     %%%%%
%%%%          (https://github.com/power-grid-lib/pglib-opf)           %%%%%
%%%%             Benchmark Group - Active Power Increase              %%%%%
%%%%                         23 - July - 2023                         %%%%%
%%%%                                                                  %%%%%
%%%%%%%%%%%%%%%%%%%%%%%%%%%%%%%%%%%%%%%%%%%%%%%%%%%%%%%%%%%%%%%%%%%%%%%%%%%
function mpc = pglib_opf_case793_goc__api
mpc.version = '2';
mpc.baseMVA = 100.0;

%% bus data
%	bus_i	type	Pd	Qd	Gs	Bs	area	Vm	Va	baseKV	zone	Vmax	Vmin
mpc.bus = [
	1	 1	 23.58	 6.64	 0.0	 0.0	 1	    0.99500	    0.00000	 115.0	 1	    1.06000	    0.93000;
	2	 1	 38.48	 17.95	 0.0	 15.498	 1	    0.99500	    0.00000	 115.0	 1	    1.06000	    0.93000;
	3	 1	 13.53	 2.57	 0.0	 0.0	 1	    0.99500	    0.00000	 35.0	 1	    1.06000	    0.93000;
	4	 1	 0.0	 0.0	 0.0	 0.0	 1	    0.99500	    0.00000	 115.0	 1	    1.06000	    0.93000;
	5	 1	 0.50	 -1.30	 0.0	 0.0	 1	    0.99500	    0.00000	 13.0	 1	    1.06000	    0.93000;
	6	 1	 0.0	 0.0	 0.0	 0.0	 1	    0.99500	    0.00000	 14.0	 1	    1.06000	    0.93000;
	7	 1	 10.43	 4.00	 0.0	 0.0	 1	    0.99500	    0.00000	 115.0	 1	    1.06000	    0.93000;
	8	 1	 3.25	 0.37	 0.0	 0.0	 1	    0.99500	    0.00000	 13.0	 1	    1.06000	    0.93000;
	9	 1	 20.10	 2.64	 0.0	 0.0	 1	    0.99500	    0.00000	 35.0	 1	    1.06000	    0.93000;
	10	 1	 0.0	 0.0	 0.0	 0.0	 1	    0.99500	    0.00000	 115.0	 1	    1.06000	    0.93000;
	11	 1	 0.0	 0.0	 0.0	 0.0	 1	    0.99500	    0.00000	 115.0	 1	    1.06000	    0.93000;
	12	 1	 14.94	 6.57	 0.0	 0.0	 1	    0.99500	    0.00000	 35.0	 1	    1.06000	    0.93000;
	13	 1	 12.40	 2.28	 0.0	 0.0	 1	    0.99500	    0.00000	 13.0	 1	    1.06000	    0.93000;
	15	 1	 19.93	 3.44	 0.0	 0.0	 1	    0.99500	    0.00000	 35.0	 1	    1.06000	    0.93000;
	16	 1	 0.0	 0.0	 0.0	 0.0	 1	    0.99500	    0.00000	 115.0	 1	    1.06000	    0.93000;
	17	 1	 0.0	 0.0	 0.0	 0.0160397150585	 1	    0.99500	    0.00000	 115.0	 1	    1.06000	    0.93000;
	18	 1	 0.0	 0.0	 0.0	 0.0	 1	    0.99500	    0.00000	 230.0	 1	    1.06000	    0.93000;
	19	 1	 0.0	 0.0	 0.0	 0.0	 1	    0.99500	    0.00000	 230.0	 1	    1.06000	    0.93000;
	20	 1	 13.05	 -4.15	 0.0	 0.0	 1	    0.99500	    0.00000	 13.0	 1	    1.06000	    0.93000;
	21	 1	 8.10	 -1.09	 0.0	 0.0	 1	    0.99500	    0.00000	 115.0	 1	    1.06000	    0.93000;
	22	 1	 0.0	 0.0	 0.0	 0.0	 1	    0.99500	    0.00000	 115.0	 1	    1.06000	    0.93000;
	23	 2	 0.0	 0.0	 0.0	 -120.31	 1	    0.99500	    0.00000	 115.0	 1	    1.06000	    0.93000;
	24	 1	 0.0	 0.0	 0.0	 0.00111992645637	 1	    0.99500	    0.00000	 115.0	 1	    1.06000	    0.93000;
	25	 1	 0.0	 0.0	 0.0	 0.0	 1	    0.99500	    0.00000	 14.0	 1	    1.06000	    0.93000;
	27	 1	 0.0	 0.0	 0.0	 0.0	 1	    0.99500	    0.00000	 115.0	 1	    1.06000	    0.93000;
	28	 1	 37.15	 2.96	 0.0	 -4.2418108228	 1	    0.99500	    0.00000	 35.0	 1	    1.06000	    0.93000;
	30	 1	 0.0	 0.0	 0.0	 0.0	 1	    0.99500	    0.00000	 115.0	 1	    1.06000	    0.93000;
	31	 2	 0.0	 0.0	 0.0	 0.0	 1	    0.99500	    0.00000	 230.0	 1	    1.06000	    0.93000;
	32	 1	 10.70	 1.20	 0.0	 0.0	 1	    0.99500	    0.00000	 115.0	 1	    1.06000	    0.93000;
	33	 1	 0.0	 0.0	 0.0	 0.0	 1	    0.99500	    0.00000	 230.0	 1	    1.06000	    0.93000;
	34	 1	 14.98	 8.24	 0.0	 0.0	 1	    0.99500	    0.00000	 35.0	 1	    1.06000	    0.93000;
	35	 1	 0.0	 0.0	 0.0	 0.0	 1	    0.99500	    0.00000	 230.0	 1	    1.06000	    0.93000;
	36	 1	 108.41	 -4.52	 0.0	 -4.438	 1	    0.99500	    0.00000	 230.0	 1	    1.06000	    0.93000;
	37	 1	 -8.37	 -3.33	 0.0	 0.0	 1	    0.99500	    0.00000	 230.0	 1	    1.06000	    0.93000;
	38	 1	 0.0	 0.0	 0.0	 0.0	 1	    0.99500	    0.00000	 230.0	 1	    1.06000	    0.93000;
	39	 1	 26.61	 7.17	 0.0	 0.0	 1	    0.99500	    0.00000	 35.0	 1	    1.06000	    0.93000;
	40	 1	 0.0	 0.0	 0.0	 0.0	 1	    0.99500	    0.00000	 115.0	 1	    1.06000	    0.93000;
	41	 1	 0.0	 0.0	 0.0	 0.0	 1	    0.99500	    0.00000	 230.0	 1	    1.06000	    0.93000;
	43	 2	 3.07	 0.46	 0.0	 0.0	 1	    0.99500	    0.00000	 115.0	 1	    1.06000	    0.93000;
	44	 1	 13.53	 2.30	 0.0	 0.0	 1	    0.99500	    0.00000	 115.0	 1	    1.06000	    0.93000;
	45	 1	 0.0	 0.0	 0.0	 0.0	 1	    0.99500	    0.00000	 230.0	 1	    1.06000	    0.93000;
	46	 2	 0.0	 0.0	 0.0	 0.0	 1	    0.99500	    0.00000	 230.0	 1	    1.06000	    0.93000;
	47	 2	 10.79	 -1.53	 0.0	 0.0	 1	    0.99500	    0.00000	 115.0	 1	    1.06000	    0.93000;
	49	 1	 14.98	 8.24	 0.0	 0.0	 1	    0.99500	    0.00000	 35.0	 1	    1.06000	    0.93000;
	50	 1	 0.0	 0.0	 0.0	 0.0	 1	    0.99500	    0.00000	 115.0	 1	    1.06000	    0.93000;
	51	 1	 7.67	 3.08	 0.0	 0.0	 1	    0.99500	    0.00000	 13.0	 1	    1.06000	    0.93000;
	52	 2	 0.0	 0.0	 0.0	 0.0	 1	    0.99500	    0.00000	 230.0	 1	    1.06000	    0.93000;
	53	 1	 10.71	 0.56	 0.0	 0.0	 1	    0.99500	    0.00000	 115.0	 1	    1.06000	    0.93000;
	54	 1	 14.66	 -1.11	 0.0	 -5.72431630412	 1	    0.99500	    0.00000	 35.0	 1	    1.06000	    0.93000;
	55	 2	 0.0	 0.0	 0.0	 0.0	 1	    0.99500	    0.00000	 230.0	 1	    1.06000	    0.93000;
	56	 1	 9.60	 5.95	 0.0	 0.0	 1	    0.99500	    0.00000	 35.0	 1	    1.06000	    0.93000;
	57	 1	 7.36	 -0.28	 0.0	 0.0	 1	    0.99500	    0.00000	 115.0	 1	    1.06000	    0.93000;
	58	 1	 15.10	 10.95	 0.0	 34.5917650937	 1	    0.99500	    0.00000	 115.0	 1	    1.06000	    0.93000;
	59	 2	 13.67	 5.40	 0.0	 0.0	 1	    0.99500	    0.00000	 35.0	 1	    1.06000	    0.93000;
	60	 1	 0.0	 0.0	 0.0	 0.0	 1	    0.99500	    0.00000	 115.0	 1	    1.06000	    0.93000;
	61	 1	 3.85	 -0.47	 0.0	 0.0	 1	    0.99500	    0.00000	 13.0	 1	    1.06000	    0.93000;
	62	 1	 8.00	 -0.28	 0.0	 0.0	 1	    0.99500	    0.00000	 115.0	 1	    1.06000	    0.93000;
	63	 1	 45.29	 0.09	 0.0	 0.0	 1	    0.99500	    0.00000	 230.0	 1	    1.06000	    0.93000;
	64	 1	 13.00	 7.71	 0.0	 0.0	 1	    0.99500	    0.00000	 35.0	 1	    1.06000	    0.93000;
	65	 2	 1.40	 0.61	 0.0	 0.0	 1	    0.99500	    0.00000	 14.0	 1	    1.06000	    0.93000;
	66	 1	 0.0	 0.0	 0.0	 0.0	 1	    0.99500	    0.00000	 230.0	 1	    1.06000	    0.93000;
	67	 1	 0.0	 0.0	 0.0	 24.9999281688	 1	    0.99500	    0.00000	 115.0	 1	    1.06000	    0.93000;
	68	 1	 7.22	 -0.27	 0.0	 0.0	 1	    0.99500	    0.00000	 115.0	 1	    1.06000	    0.93000;
	69	 1	 0.0	 0.0	 0.0	 0.0	 1	    0.99500	    0.00000	 230.0	 1	    1.06000	    0.93000;
	70	 1	 5.69	 -3.56	 0.0	 0.0	 1	    0.99500	    0.00000	 35.0	 1	    1.06000	    0.93000;
	71	 2	 11.54	 -3.59	 0.0	 0.0	 1	    0.99500	    0.00000	 115.0	 1	    1.06000	    0.93000;
	72	 1	 8.21	 0.36	 0.0	 0.0	 1	    0.99500	    0.00000	 115.0	 1	    1.06000	    0.93000;
	73	 1	 0.0	 0.0	 0.0	 0.0	 1	    0.99500	    0.00000	 115.0	 1	    1.06000	    0.93000;
	74	 1	 10.19	 4.89	 0.0	 0.00179881396866	 1	    0.99500	    0.00000	 115.0	 1	    1.06000	    0.93000;
	75	 1	 3.06	 -2.48	 0.0	 0.0	 1	    0.99500	    0.00000	 13.0	 1	    1.06000	    0.93000;
	76	 1	 5.48	 -0.28	 0.0	 0.0	 1	    0.99500	    0.00000	 115.0	 1	    1.06000	    0.93000;
	77	 1	 35.95	 0.43	 0.0	 0.0	 1	    0.99500	    0.00000	 35.0	 1	    1.06000	    0.93000;
	78	 1	 21.40	 3.53	 0.0	 0.0	 1	    0.99500	    0.00000	 35.0	 1	    1.06000	    0.93000;
	79	 1	 0.0	 0.0	 0.0	 0.0	 1	    0.99500	    0.00000	 230.0	 1	    1.06000	    0.93000;
	80	 1	 1.38	 0.56	 0.0	 0.0	 1	    0.99500	    0.00000	 14.0	 1	    1.06000	    0.93000;
	81	 1	 46.08	 22.08	 0.0	 21.502	 1	    0.99500	    0.00000	 115.0	 1	    1.06000	    0.93000;
	82	 1	 10.71	 0.56	 0.0	 0.0	 1	    0.99500	    0.00000	 115.0	 1	    1.06000	    0.93000;
	83	 1	 0.0	 0.0	 0.0	 0.0	 1	    0.99500	    0.00000	 115.0	 1	    1.06000	    0.93000;
	84	 1	 13.29	 0.56	 0.0	 0.0	 1	    0.99500	    0.00000	 115.0	 1	    1.06000	    0.93000;
	85	 1	 20.98	 3.93	 0.0	 0.0	 1	    0.99500	    0.00000	 115.0	 1	    1.06000	    0.93000;
	86	 2	 0.0	 0.0	 0.0	 0.0	 1	    0.99500	    0.00000	 230.0	 1	    1.06000	    0.93000;
	87	 1	 0.0	 0.0	 0.0	 0.0	 1	    0.99500	    0.00000	 230.0	 1	    1.06000	    0.93000;
	88	 1	 -0.27	 0.01	 0.0	 -1.541560956	 1	    0.99500	    0.00000	 35.0	 1	    1.06000	    0.93000;
	89	 1	 30.00	 0.02	 0.0	 0.0	 1	    0.99500	    0.00000	 35.0	 1	    1.06000	    0.93000;
	90	 2	 0.0	 0.0	 0.0	 0.0	 1	    0.99500	    0.00000	 230.0	 1	    1.06000	    0.93000;
	91	 1	 0.0	 0.0	 0.0	 0.0	 1	    0.99500	    0.00000	 115.0	 1	    1.06000	    0.93000;
	92	 1	 4.65	 -0.28	 0.0	 0.0	 1	    0.99500	    0.00000	 115.0	 1	    1.06000	    0.93000;
	93	 2	 0.0	 0.0	 0.0	 0.0	 1	    0.99500	    0.00000	 115.0	 1	    1.06000	    0.93000;
	94	 1	 3.33	 2.58	 0.0	 11.8045729003	 1	    0.99500	    0.00000	 115.0	 1	    1.06000	    0.93000;
	95	 1	 0.0	 0.0	 0.0	 0.0	 1	    0.99500	    0.00000	 345.0	 2	    1.06000	    0.93000;
	96	 1	 34.00	 40.42	 0.0	 0.0	 1	    0.99500	    0.00000	 345.0	 2	    1.06000	    0.93000;
	97	 1	 28.89	 25.99	 0.0	 0.0	 1	    0.99500	    0.00000	 345.0	 2	    1.06000	    0.93000;
	98	 1	 0.0	 0.0	 0.0	 -24.285	 1	    0.99500	    0.00000	 345.0	 2	    1.06000	    0.93000;
	99	 1	 10.74	 18.49	 0.0	 0.0	 1	    0.99500	    0.00000	 345.0	 2	    1.06000	    0.93000;
	100	 1	 12.27	 21.57	 0.0	 4.571	 1	    0.99500	    0.00000	 345.0	 2	    1.06000	    0.93000;
	101	 1	 157.68	 20.12	 0.0	 0.0	 1	    0.99500	    0.00000	 345.0	 2	    1.06000	    0.93000;
	102	 1	 1.16	 -45.89	 0.0	 -43.607	 1	    0.99500	    0.00000	 345.0	 2	    1.06000	    0.93000;
	103	 1	 0.0	 0.0	 0.0	 0.0	 1	    0.99500	    0.00000	 138.0	 2	    1.06000	    0.93000;
	104	 1	 0.0	 0.0	 0.0	 0.0	 1	    0.99500	    0.00000	 138.0	 2	    1.06000	    0.93000;
	105	 2	 6.57	 1.62	 0.0	 0.0	 1	    0.99500	    0.00000	 138.0	 2	    1.06000	    0.93000;
	106	 1	 8.41	 2.36	 0.0	 0.0	 1	    0.99500	    0.00000	 138.0	 2	    1.06000	    0.93000;
	107	 1	 0.0	 0.0	 0.0	 0.0	 1	    0.99500	    0.00000	 138.0	 2	    1.06000	    0.93000;
	108	 1	 10.03	 -13.96	 0.0	 0.0	 1	    0.99500	    0.00000	 138.0	 2	    1.06000	    0.93000;
	109	 1	 12.63	 2.22	 0.0	 0.0	 1	    0.99500	    0.00000	 138.0	 2	    1.06000	    0.93000;
	110	 1	 2.87	 0.82	 0.0	 0.0	 1	    0.99500	    0.00000	 138.0	 2	    1.06000	    0.93000;
	111	 1	 5.12	 1.46	 0.0	 0.0	 1	    0.99500	    0.00000	 138.0	 2	    1.06000	    0.93000;
	112	 1	 20.75	 5.17	 0.0	 0.0	 1	    0.99500	    0.00000	 138.0	 2	    1.06000	    0.93000;
	113	 1	 0.0	 0.0	 0.0	 0.0	 1	    0.99500	    0.00000	 138.0	 2	    1.06000	    0.93000;
	114	 1	 0.0	 0.0	 0.0	 0.0	 1	    0.99500	    0.00000	 138.0	 2	    1.06000	    0.93000;
	115	 1	 7.38	 1.78	 0.0	 0.0	 1	    0.99500	    0.00000	 138.0	 2	    1.06000	    0.93000;
	116	 1	 36.23	 21.67	 0.0	 0.0	 1	    0.99500	    0.00000	 138.0	 2	    1.06000	    0.93000;
	117	 1	 0.0	 0.0	 0.0	 0.0	 1	    0.99500	    0.00000	 138.0	 2	    1.06000	    0.93000;
	118	 1	 8.38	 2.37	 0.0	 0.0	 1	    0.99500	    0.00000	 138.0	 2	    1.06000	    0.93000;
	119	 1	 0.0	 0.0	 0.0	 0.0	 1	    0.99500	    0.00000	 138.0	 2	    1.06000	    0.93000;
	120	 1	 14.76	 3.23	 0.0	 0.0	 1	    0.99500	    0.00000	 138.0	 2	    1.06000	    0.93000;
	121	 1	 0.0	 0.0	 0.0	 0.0	 1	    0.99500	    0.00000	 138.0	 2	    1.06000	    0.93000;
	122	 1	 0.0	 0.0	 0.0	 0.0	 1	    0.99500	    0.00000	 138.0	 2	    1.06000	    0.93000;
	123	 1	 0.0	 0.0	 0.0	 0.0	 1	    0.99500	    0.00000	 138.0	 2	    1.06000	    0.93000;
	124	 1	 0.0	 0.0	 0.0	 0.0	 1	    0.99500	    0.00000	 138.0	 2	    1.06000	    0.93000;
	125	 1	 0.0	 0.0	 0.0	 0.0	 1	    0.99500	    0.00000	 138.0	 2	    1.06000	    0.93000;
	126	 1	 0.0	 0.0	 0.0	 0.0	 1	    0.99500	    0.00000	 138.0	 2	    1.06000	    0.93000;
	127	 1	 0.0	 0.0	 0.0	 0.0	 1	    0.99500	    0.00000	 138.0	 2	    1.06000	    0.93000;
	128	 1	 1.53	 0.39	 0.0	 0.0	 1	    0.99500	    0.00000	 138.0	 2	    1.06000	    0.93000;
	129	 1	 6.89	 3.19	 0.0	 0.0	 1	    0.99500	    0.00000	 138.0	 2	    1.06000	    0.93000;
	130	 1	 0.0	 0.0	 0.0	 0.0	 1	    0.99500	    0.00000	 138.0	 2	    1.06000	    0.93000;
	131	 1	 122.75	 40.05	 0.0	 0.0	 1	    0.99500	    0.00000	 138.0	 2	    1.06000	    0.93000;
	132	 1	 8.02	 1.86	 0.0	 0.0	 1	    0.99500	    0.00000	 138.0	 2	    1.06000	    0.93000;
	133	 1	 2.95	 0.62	 0.0	 -1.321	 1	    0.99500	    0.00000	 138.0	 2	    1.06000	    0.93000;
	134	 2	 81.32	 25.70	 0.0	 0.0	 1	    0.99500	    0.00000	 138.0	 2	    1.06000	    0.93000;
	135	 1	 9.21	 2.19	 0.0	 0.0	 1	    0.99500	    0.00000	 138.0	 2	    1.06000	    0.93000;
	136	 1	 4.27	 0.92	 0.0	 0.0	 1	    0.99500	    0.00000	 138.0	 2	    1.06000	    0.93000;
	137	 1	 39.04	 -9.16	 0.0	 -13.204	 1	    0.99500	    0.00000	 138.0	 2	    1.06000	    0.93000;
	138	 1	 0.66	 0.10	 0.0	 0.0	 1	    0.99500	    0.00000	 138.0	 2	    1.06000	    0.93000;
	139	 1	 0.0	 0.0	 0.0	 0.0	 1	    0.99500	    0.00000	 138.0	 2	    1.06000	    0.93000;
	140	 1	 4.27	 1.70	 0.0	 0.0	 1	    0.99500	    0.00000	 138.0	 2	    1.06000	    0.93000;
	141	 1	 8.95	 0.69	 0.0	 0.0	 1	    0.99500	    0.00000	 138.0	 2	    1.06000	    0.93000;
	142	 1	 12.46	 2.83	 0.0	 0.0	 1	    0.99500	    0.00000	 138.0	 2	    1.06000	    0.93000;
	143	 1	 0.64	 1.25	 0.0	 1.197	 1	    0.99500	    0.00000	 138.0	 2	    1.06000	    0.93000;
	144	 1	 0.0	 0.0	 0.0	 0.0	 1	    0.99500	    0.00000	 138.0	 2	    1.06000	    0.93000;
	145	 1	 79.55	 16.97	 0.0	 16.36	 1	    0.99500	    0.00000	 138.0	 2	    1.06000	    0.93000;
	146	 1	 2.45	 0.41	 0.0	 0.0	 1	    0.99500	    0.00000	 138.0	 2	    1.06000	    0.93000;
	147	 1	 1.64	 0.50	 0.0	 0.0	 1	    0.99500	    0.00000	 138.0	 2	    1.06000	    0.93000;
	148	 1	 10.02	 2.87	 0.0	 0.0	 1	    0.99500	    0.00000	 138.0	 2	    1.06000	    0.93000;
	149	 1	 9.23	 -8.41	 0.0	 -8.091	 1	    0.99500	    0.00000	 138.0	 2	    1.06000	    0.93000;
	150	 1	 7.38	 1.55	 0.0	 0.0	 1	    0.99500	    0.00000	 138.0	 2	    1.06000	    0.93000;
	151	 2	 29.01	 31.03	 0.0	 0.0	 1	    0.99500	    0.00000	 138.0	 2	    1.06000	    0.93000;
	152	 2	 10.74	 14.38	 0.0	 0.0	 1	    0.99500	    0.00000	 138.0	 2	    1.06000	    0.93000;
	153	 1	 13.95	 3.14	 0.0	 0.0	 1	    0.99500	    0.00000	 138.0	 2	    1.06000	    0.93000;
	154	 1	 0.0	 0.0	 0.0	 0.0	 1	    0.99500	    0.00000	 138.0	 2	    1.06000	    0.93000;
	155	 1	 0.0	 0.0	 0.0	 0.0	 1	    0.99500	    0.00000	 138.0	 2	    1.06000	    0.93000;
	156	 1	 0.0	 0.0	 0.0	 40.892	 1	    0.99500	    0.00000	 138.0	 2	    1.06000	    0.93000;
	157	 1	 4.51	 1.28	 0.0	 0.0	 1	    0.99500	    0.00000	 138.0	 2	    1.06000	    0.93000;
	158	 1	 0.0	 0.0	 0.0	 0.0	 1	    0.99500	    0.00000	 138.0	 2	    1.06000	    0.93000;
	159	 2	 22.33	 0.56	 0.0	 0.0	 1	    0.99500	    0.00000	 138.0	 2	    1.06000	    0.93000;
	160	 1	 17.23	 2.73	 0.0	 0.0	 1	    0.99500	    0.00000	 138.0	 2	    1.06000	    0.93000;
	161	 1	 9.79	 2.85	 0.0	 0.0	 1	    0.99500	    0.00000	 138.0	 2	    1.06000	    0.93000;
	162	 1	 12.75	 3.78	 0.0	 0.0	 1	    0.99500	    0.00000	 138.0	 2	    1.06000	    0.93000;
	163	 1	 1.30	 0.08	 0.0	 0.0	 1	    0.99500	    0.00000	 138.0	 2	    1.06000	    0.93000;
	164	 1	 0.0	 0.0	 0.0	 0.0	 1	    0.99500	    0.00000	 138.0	 2	    1.06000	    0.93000;
	165	 1	 1.01	 0.40	 0.0	 0.0	 1	    0.99500	    0.00000	 138.0	 2	    1.06000	    0.93000;
	166	 1	 0.81	 0.32	 0.0	 0.0	 1	    0.99500	    0.00000	 138.0	 2	    1.06000	    0.93000;
	167	 1	 0.0	 0.0	 0.0	 0.0	 1	    0.99500	    0.00000	 138.0	 2	    1.06000	    0.93000;
	168	 1	 15.91	 3.55	 0.0	 0.0	 1	    0.99500	    0.00000	 138.0	 2	    1.06000	    0.93000;
	169	 1	 3.94	 0.95	 0.0	 0.0	 1	    0.99500	    0.00000	 138.0	 2	    1.06000	    0.93000;
	170	 1	 0.0	 0.0	 0.0	 0.0	 1	    0.99500	    0.00000	 138.0	 2	    1.06000	    0.93000;
	171	 1	 8.21	 0.78	 0.0	 0.0	 1	    0.99500	    0.00000	 138.0	 2	    1.06000	    0.93000;
	172	 1	 0.0	 0.0	 0.0	 0.0	 1	    0.99500	    0.00000	 138.0	 2	    1.06000	    0.93000;
	173	 1	 11.14	 2.78	 0.0	 0.0	 1	    0.99500	    0.00000	 138.0	 2	    1.06000	    0.93000;
	174	 1	 0.0	 0.0	 0.0	 0.0	 1	    0.99500	    0.00000	 138.0	 2	    1.06000	    0.93000;
	175	 1	 4.59	 1.17	 0.0	 0.0	 1	    0.99500	    0.00000	 138.0	 2	    1.06000	    0.93000;
	176	 1	 9.85	 2.34	 0.0	 0.0	 1	    0.99500	    0.00000	 138.0	 2	    1.06000	    0.93000;
	177	 1	 0.0	 0.0	 0.0	 0.0	 1	    0.99500	    0.00000	 138.0	 2	    1.06000	    0.93000;
	178	 1	 0.0	 0.0	 0.0	 0.0	 1	    0.99500	    0.00000	 138.0	 2	    1.06000	    0.93000;
	179	 2	 9.19	 2.12	 0.0	 0.0	 1	    0.99500	    0.00000	 138.0	 2	    1.06000	    0.93000;
	180	 1	 0.0	 0.0	 0.0	 0.0	 1	    0.99500	    0.00000	 138.0	 2	    1.06000	    0.93000;
	181	 1	 6.97	 1.94	 0.0	 0.0	 1	    0.99500	    0.00000	 138.0	 2	    1.06000	    0.93000;
	182	 1	 6.57	 1.84	 0.0	 0.0	 1	    0.99500	    0.00000	 138.0	 2	    1.06000	    0.93000;
	183	 1	 0.0	 0.0	 0.0	 0.0	 1	    0.99500	    0.00000	 138.0	 2	    1.06000	    0.93000;
	184	 1	 5.58	 1.26	 0.0	 0.0	 1	    0.99500	    0.00000	 138.0	 2	    1.06000	    0.93000;
	185	 1	 6.55	 1.59	 0.0	 0.0	 1	    0.99500	    0.00000	 138.0	 2	    1.06000	    0.93000;
	186	 1	 0.0	 0.0	 0.0	 0.0	 1	    0.99500	    0.00000	 138.0	 2	    1.06000	    0.93000;
	187	 1	 0.0	 0.0	 0.0	 0.0	 1	    0.99500	    0.00000	 138.0	 2	    1.06000	    0.93000;
	188	 1	 1.15	 0.38	 0.0	 0.0	 1	    0.99500	    0.00000	 138.0	 2	    1.06000	    0.93000;
	189	 1	 1.96	 0.60	 0.0	 0.0	 1	    0.99500	    0.00000	 138.0	 2	    1.06000	    0.93000;
	190	 2	 0.0	 0.0	 0.0	 0.0	 1	    0.99500	    0.00000	 138.0	 2	    1.06000	    0.93000;
	191	 1	 7.06	 1.78	 0.0	 0.0	 1	    0.99500	    0.00000	 138.0	 2	    1.06000	    0.93000;
	192	 1	 0.0	 0.0	 0.0	 0.0	 1	    0.99500	    0.00000	 138.0	 2	    1.06000	    0.93000;
	193	 1	 7.06	 1.67	 0.0	 0.0	 1	    0.99500	    0.00000	 138.0	 2	    1.06000	    0.93000;
	194	 1	 18.70	 4.07	 0.0	 0.0	 1	    0.99500	    0.00000	 138.0	 2	    1.06000	    0.93000;
	195	 1	 27.12	 5.79	 0.0	 5.562	 1	    0.99500	    0.00000	 138.0	 2	    1.06000	    0.93000;
	196	 1	 0.0	 0.0	 0.0	 0.0	 1	    0.99500	    0.00000	 138.0	 2	    1.06000	    0.93000;
	197	 1	 0.0	 0.0	 0.0	 0.0	 1	    0.99500	    0.00000	 138.0	 2	    1.06000	    0.93000;
	198	 1	 5.91	 1.42	 0.0	 0.0	 1	    0.99500	    0.00000	 138.0	 2	    1.06000	    0.93000;
	199	 1	 0.0	 0.0	 0.0	 0.0	 1	    0.99500	    0.00000	 138.0	 2	    1.06000	    0.93000;
	200	 1	 8.15	 1.52	 0.0	 0.0	 1	    0.99500	    0.00000	 138.0	 2	    1.06000	    0.93000;
	201	 1	 11.39	 2.06	 0.0	 0.0	 1	    0.99500	    0.00000	 138.0	 2	    1.06000	    0.93000;
	202	 1	 3.30	 0.57	 0.0	 0.0	 1	    0.99500	    0.00000	 138.0	 2	    1.06000	    0.93000;
	203	 1	 0.0	 0.0	 0.0	 0.0	 1	    0.99500	    0.00000	 138.0	 2	    1.06000	    0.93000;
	204	 1	 18.14	 4.79	 0.0	 0.0	 1	    0.99500	    0.00000	 138.0	 2	    1.06000	    0.93000;
	205	 1	 17.20	 4.97	 0.0	 0.0	 1	    0.99500	    0.00000	 138.0	 2	    1.06000	    0.93000;
	206	 1	 6.34	 1.75	 0.0	 0.0	 1	    0.99500	    0.00000	 138.0	 2	    1.06000	    0.93000;
	207	 1	 3.94	 1.07	 0.0	 0.0	 1	    0.99500	    0.00000	 138.0	 2	    1.06000	    0.93000;
	208	 1	 35.30	 -1.73	 0.0	 0.0	 1	    0.99500	    0.00000	 138.0	 2	    1.06000	    0.93000;
	209	 1	 0.81	 0.31	 0.0	 0.0	 1	    0.99500	    0.00000	 138.0	 2	    1.06000	    0.93000;
	210	 1	 0.0	 0.0	 0.0	 0.0	 1	    0.99500	    0.00000	 138.0	 2	    1.06000	    0.93000;
	211	 1	 0.0	 0.0	 0.0	 0.0	 1	    0.99500	    0.00000	 138.0	 2	    1.06000	    0.93000;
	212	 1	 0.0	 0.0	 0.0	 0.0	 1	    0.99500	    0.00000	 345.0	 3	    1.06000	    0.93000;
	213	 1	 73.29	 17.07	 0.0	 0.0	 1	    0.99500	    0.00000	 345.0	 3	    1.06000	    0.93000;
	214	 1	 418.95	 22.77	 0.0	 0.0	 1	    0.99500	    0.00000	 345.0	 3	    1.06000	    0.93000;
	215	 1	 0.0	 0.0	 0.0	 0.0	 1	    0.99500	    0.00000	 345.0	 3	    1.06000	    0.93000;
	216	 1	 118.76	 46.27	 0.0	 0.0	 1	    0.99500	    0.00000	 345.0	 3	    1.06000	    0.93000;
	217	 1	 0.0	 0.0	 0.0	 0.0	 1	    0.99500	    0.00000	 345.0	 3	    1.06000	    0.93000;
	218	 1	 0.0	 0.0	 0.0	 0.0	 1	    0.99500	    0.00000	 345.0	 3	    1.06000	    0.93000;
	219	 1	 0.0	 0.0	 0.0	 0.0	 1	    0.99500	    0.00000	 345.0	 3	    1.06000	    0.93000;
	220	 1	 659.88	 -1.01	 0.0	 -1.094	 1	    0.99500	    0.00000	 500.0	 3	    1.06000	    0.93000;
	221	 1	 49.35	 53.48	 0.0	 0.0	 1	    0.99500	    0.00000	 345.0	 3	    1.06000	    0.93000;
	222	 2	 71.13	 94.56	 0.0	 0.0	 1	    0.99500	    0.00000	 345.0	 3	    1.06000	    0.93000;
	223	 3	 92.06	 123.25	 0.0	 0.0	 1	    0.99500	    0.00000	 500.0	 3	    1.06000	    0.93000;
	224	 2	 1633.49	 292.45	 0.0	 0.0	 1	    0.99500	    0.00000	 500.0	 3	    1.06000	    0.93000;
	225	 1	 573.93	 86.87	 0.0	 0.0	 1	    0.99500	    0.00000	 500.0	 3	    1.06000	    0.93000;
	226	 1	 109.41	 60.34	 0.0	 0.0	 1	    0.99500	    0.00000	 345.0	 3	    1.06000	    0.93000;
	227	 1	 69.90	 -55.81	 0.0	 0.0	 1	    0.99500	    0.00000	 345.0	 3	    1.06000	    0.93000;
	228	 1	 39.85	 -2.77	 0.0	 0.0	 1	    0.99500	    0.00000	 345.0	 3	    1.06000	    0.93000;
	229	 1	 21.55	 26.23	 0.0	 0.0	 1	    0.99500	    0.00000	 345.0	 3	    1.06000	    0.93000;
	230	 1	 0.0	 0.0	 0.0	 0.0	 1	    0.99500	    0.00000	 345.0	 3	    1.06000	    0.93000;
	231	 1	 230.30	 57.11	 0.0	 0.0	 1	    0.99500	    0.00000	 345.0	 3	    1.06000	    0.93000;
	232	 1	 0.0	 0.0	 0.0	 0.0	 1	    0.99500	    0.00000	 500.0	 3	    1.06000	    0.93000;
	233	 2	 0.0	 0.0	 0.0	 0.0	 1	    0.99500	    0.00000	 500.0	 3	    1.06000	    0.93000;
	234	 1	 11.41	 39.44	 0.0	 0.0	 1	    0.99500	    0.00000	 345.0	 3	    1.06000	    0.93000;
	235	 1	 75.99	 41.50	 0.0	 0.0	 1	    0.99500	    0.00000	 500.0	 3	    1.06000	    0.93000;
	236	 2	 488.69	 7.40	 0.0	 0.0	 1	    0.99500	    0.00000	 345.0	 3	    1.06000	    0.93000;
	237	 1	 5.91	 1.03	 0.0	 0.0	 1	    0.99500	    0.00000	 138.0	 3	    1.06000	    0.93000;
	238	 1	 3.48	 1.14	 0.0	 0.0	 1	    0.99500	    0.00000	 138.0	 3	    1.06000	    0.93000;
	239	 1	 2.42	 0.41	 0.0	 0.0	 1	    0.99500	    0.00000	 138.0	 3	    1.06000	    0.93000;
	240	 1	 6.81	 1.13	 0.0	 0.0	 1	    0.99500	    0.00000	 138.0	 3	    1.06000	    0.93000;
	241	 1	 12.58	 0.12	 0.0	 0.0	 1	    0.99500	    0.00000	 138.0	 3	    1.06000	    0.93000;
	242	 1	 21.31	 7.97	 0.0	 0.0	 1	    0.99500	    0.00000	 138.0	 3	    1.06000	    0.93000;
	243	 1	 29.95	 11.53	 0.0	 0.0	 1	    0.99500	    0.00000	 138.0	 3	    1.06000	    0.93000;
	244	 1	 0.0	 0.0	 0.0	 0.0	 1	    0.99500	    0.00000	 138.0	 3	    1.06000	    0.93000;
	245	 1	 122.71	 9.44	 0.0	 0.0	 1	    0.99500	    0.00000	 138.0	 3	    1.06000	    0.93000;
	246	 2	 30.69	 41.08	 0.0	 0.0	 1	    0.99500	    0.00000	 24.0	 3	    1.06000	    0.93000;
	247	 1	 31.35	 21.18	 0.0	 0.0	 1	    0.99500	    0.00000	 138.0	 3	    1.06000	    0.93000;
	248	 1	 56.01	 12.34	 0.0	 0.0	 1	    0.99500	    0.00000	 138.0	 3	    1.06000	    0.93000;
	249	 1	 127.47	 11.13	 0.0	 0.0	 1	    0.99500	    0.00000	 138.0	 3	    1.06000	    0.93000;
	250	 1	 0.23	 0.69	 0.0	 0.0	 1	    0.99500	    0.00000	 138.0	 3	    1.06000	    0.93000;
	251	 1	 28.42	 12.58	 0.0	 0.0	 1	    0.99500	    0.00000	 138.0	 3	    1.06000	    0.93000;
	252	 1	 21.62	 6.30	 0.0	 0.0	 1	    0.99500	    0.00000	 138.0	 3	    1.06000	    0.93000;
	253	 1	 17.04	 -4.34	 0.0	 0.0	 1	    0.99500	    0.00000	 138.0	 3	    1.06000	    0.93000;
	254	 1	 107.83	 21.04	 0.0	 0.0	 1	    0.99500	    0.00000	 138.0	 3	    1.06000	    0.93000;
	255	 1	 0.0	 0.0	 0.0	 0.0	 1	    0.99500	    0.00000	 138.0	 3	    1.06000	    0.93000;
	256	 2	 8.62	 1.23	 0.0	 0.0	 1	    0.99500	    0.00000	 138.0	 3	    1.06000	    0.93000;
	257	 1	 42.86	 16.01	 0.0	 0.0	 1	    0.99500	    0.00000	 138.0	 3	    1.06000	    0.93000;
	258	 1	 5.45	 0.31	 0.0	 0.0	 1	    0.99500	    0.00000	 138.0	 3	    1.06000	    0.93000;
	259	 1	 3.64	 0.62	 0.0	 0.0	 1	    0.99500	    0.00000	 138.0	 3	    1.06000	    0.93000;
	260	 1	 5.45	 0.62	 0.0	 0.0	 1	    0.99500	    0.00000	 138.0	 3	    1.06000	    0.93000;
	261	 1	 3.18	 0.41	 0.0	 0.0	 1	    0.99500	    0.00000	 138.0	 3	    1.06000	    0.93000;
	262	 1	 2.63	 -8.72	 0.0	 0.0	 1	    0.99500	    0.00000	 138.0	 3	    1.06000	    0.93000;
	263	 1	 1.81	 0.31	 0.0	 0.0	 1	    0.99500	    0.00000	 138.0	 3	    1.06000	    0.93000;
	264	 1	 0.61	 0.10	 0.0	 0.0	 1	    0.99500	    0.00000	 138.0	 3	    1.06000	    0.93000;
	265	 1	 0.0	 0.0	 0.0	 0.0	 1	    0.99500	    0.00000	 345.0	 4	    1.06000	    0.93000;
	266	 1	 4.56	 3.39	 0.0	 0.0	 1	    0.99500	    0.00000	 138.0	 4	    1.06000	    0.93000;
	267	 2	 22.54	 7.18	 0.0	 4.51851848771	 1	    0.99500	    0.00000	 69.0	 4	    1.06000	    0.93000;
	268	 2	 0.0	 0.0	 0.0	 -28.7013868158	 1	    0.99500	    0.00000	 765.0	 4	    1.06000	    0.93000;
	269	 1	 -8.81	 1.56	 0.0	 0.0	 1	    0.99500	    0.00000	 138.0	 4	    1.06000	    0.93000;
	270	 1	 9.81	 3.10	 0.0	 0.0	 1	    0.99500	    0.00000	 46.0	 4	    1.06000	    0.93000;
	271	 1	 0.0	 0.0	 0.0	 -1.93571405737	 1	    0.99500	    0.00000	 69.0	 4	    1.06000	    0.93000;
	272	 2	 47.06	 5.97	 0.0	 0.0	 1	    0.99500	    0.00000	 138.0	 4	    1.06000	    0.93000;
	273	 1	 5.77	 2.83	 0.0	 0.0	 1	    0.99500	    0.00000	 46.0	 4	    1.06000	    0.93000;
	274	 1	 23.83	 4.28	 0.0	 0.0	 1	    0.99500	    0.00000	 46.0	 4	    1.06000	    0.93000;
	275	 2	 0.0	 0.0	 0.0	 25.9538764431	 1	    0.99500	    0.00000	 138.0	 4	    1.06000	    0.93000;
	276	 1	 0.0	 0.0	 0.0	 0.0	 1	    0.99500	    0.00000	 69.0	 4	    1.06000	    0.93000;
	277	 1	 247.73	 81.17	 0.0	 0.0	 1	    0.99500	    0.00000	 345.0	 4	    1.06000	    0.93000;
	278	 1	 0.0	 0.0	 0.0	 17.9999055877	 1	    0.99500	    0.00000	 69.0	 4	    1.06000	    0.93000;
	279	 1	 11.34	 3.16	 0.0	 0.0	 1	    0.99500	    0.00000	 69.0	 4	    1.06000	    0.93000;
	280	 1	 0.0	 0.0	 0.0	 0.0	 1	    0.99500	    0.00000	 138.0	 4	    1.06000	    0.93000;
	281	 2	 3.13	 3.10	 0.0	 0.0	 1	    0.99500	    0.00000	 46.0	 4	    1.06000	    0.93000;
	282	 1	 0.0	 0.0	 0.0	 0.0	 1	    0.99500	    0.00000	 69.0	 4	    1.06000	    0.93000;
	283	 1	 0.0	 0.0	 0.0	 0.0	 1	    0.99500	    0.00000	 138.0	 4	    1.06000	    0.93000;
	284	 1	 19.32	 7.66	 0.0	 0.0	 1	    0.99500	    0.00000	 69.0	 4	    1.06000	    0.93000;
	285	 1	 3.30	 2.04	 0.0	 17.9999589145	 1	    0.99500	    0.00000	 46.0	 4	    1.06000	    0.93000;
	286	 1	 2.18	 2.91	 0.0	 0.0	 1	    0.99500	    0.00000	 69.0	 4	    1.06000	    0.93000;
	287	 1	 2.09	 2.72	 0.0	 0.0	 1	    0.99500	    0.00000	 46.0	 4	    1.06000	    0.93000;
	288	 1	 0.0	 0.0	 0.0	 0.0	 1	    0.99500	    0.00000	 69.0	 4	    1.06000	    0.93000;
	289	 1	 12.50	 0.46	 0.0	 0.0	 1	    0.99500	    0.00000	 69.0	 4	    1.06000	    0.93000;
	290	 1	 4.27	 2.83	 0.0	 0.0	 1	    0.99500	    0.00000	 46.0	 4	    1.06000	    0.93000;
	291	 1	 1.93	 2.27	 0.0	 0.0	 1	    0.99500	    0.00000	 138.0	 4	    1.06000	    0.93000;
	292	 1	 29.06	 2.53	 0.0	 0.0	 1	    0.99500	    0.00000	 138.0	 4	    1.06000	    0.93000;
	293	 1	 0.0	 0.0	 0.0	 0.0	 1	    0.99500	    0.00000	 18.0	 4	    1.06000	    0.93000;
	294	 1	 41.23	 11.59	 0.0	 0.0	 1	    0.99500	    0.00000	 138.0	 4	    1.06000	    0.93000;
	295	 1	 0.0	 0.0	 0.0	 0.0	 1	    0.99500	    0.00000	 138.0	 4	    1.06000	    0.93000;
	296	 1	 0.0	 0.0	 0.0	 0.0	 1	    0.99500	    0.00000	 18.0	 4	    1.06000	    0.93000;
	297	 1	 0.0	 0.0	 0.0	 0.0	 1	    0.99500	    0.00000	 1.0	 4	    1.06000	    0.93000;
	298	 2	 16.13	 3.76	 0.0	 0.0	 1	    0.99500	    0.00000	 46.0	 4	    1.06000	    0.93000;
	299	 1	 0.0	 0.0	 0.0	 5.25176666127	 1	    0.99500	    0.00000	 46.0	 4	    1.06000	    0.93000;
	300	 1	 0.0	 0.0	 0.0	 26.3057695938	 1	    0.99500	    0.00000	 138.0	 4	    1.06000	    0.93000;
	301	 1	 8.72	 7.10	 0.0	 0.0	 1	    0.99500	    0.00000	 46.0	 4	    1.06000	    0.93000;
	302	 1	 7.24	 3.38	 0.0	 0.0	 1	    0.99500	    0.00000	 46.0	 4	    1.06000	    0.93000;
	303	 2	 34.60	 6.48	 0.0	 0.0	 1	    0.99500	    0.00000	 69.0	 4	    1.06000	    0.93000;
	304	 1	 28.88	 2.88	 0.0	 2.218	 1	    0.99500	    0.00000	 138.0	 4	    1.06000	    0.93000;
	305	 1	 0.0	 0.0	 0.0	 0.0	 1	    0.99500	    0.00000	 18.0	 4	    1.06000	    0.93000;
	306	 1	 94.27	 -10.24	 0.0	 0.0	 1	    0.99500	    0.00000	 138.0	 4	    1.06000	    0.93000;
	307	 2	 23.97	 11.25	 0.0	 0.0	 1	    0.99500	    0.00000	 69.0	 4	    1.06000	    0.93000;
	308	 1	 107.79	 -29.10	 0.0	 0.0	 1	    0.99500	    0.00000	 138.0	 4	    1.06000	    0.93000;
	309	 1	 0.0	 0.0	 0.0	 0.0	 1	    0.99500	    0.00000	 22.0	 4	    1.06000	    0.93000;
	310	 1	 9.13	 2.70	 0.0	 1.81258762688	 1	    0.99500	    0.00000	 69.0	 4	    1.06000	    0.93000;
	311	 1	 11.14	 2.40	 0.0	 0.0	 1	    0.99500	    0.00000	 69.0	 4	    1.06000	    0.93000;
	312	 1	 33.85	 14.77	 0.0	 17.9997272614	 1	    0.99500	    0.00000	 69.0	 4	    1.06000	    0.93000;
	313	 1	 61.06	 10.92	 0.0	 0.0	 1	    0.99500	    0.00000	 138.0	 4	    1.06000	    0.93000;
	314	 1	 0.0	 0.0	 0.0	 0.0	 1	    0.99500	    0.00000	 1.0	 4	    1.06000	    0.93000;
	315	 1	 0.0	 0.0	 0.0	 26.9998870416	 1	    0.99500	    0.00000	 69.0	 4	    1.06000	    0.93000;
	316	 1	 0.0	 0.0	 0.0	 0.0	 1	    0.99500	    0.00000	 161.0	 4	    1.06000	    0.93000;
	317	 1	 12.97	 4.08	 0.0	 0.0	 1	    0.99500	    0.00000	 138.0	 4	    1.06000	    0.93000;
	318	 1	 11.60	 2.80	 0.0	 0.0	 1	    0.99500	    0.00000	 138.0	 4	    1.06000	    0.93000;
	319	 1	 24.14	 4.45	 0.0	 10.617548809	 1	    0.99500	    0.00000	 69.0	 4	    1.06000	    0.93000;
	320	 1	 3.68	 1.89	 0.0	 0.0	 1	    0.99500	    0.00000	 138.0	 4	    1.06000	    0.93000;
	321	 1	 18.40	 10.13	 0.0	 0.0	 1	    0.99500	    0.00000	 69.0	 4	    1.06000	    0.93000;