%%%%%%%%%%%%%%%%%%%%%%%%%%%%%%%%%%%%%%%%%%%%%%%%%%%%%%%%%%%%%%%%%%%%%%%%%%%
%%%%                                                                  %%%%%
%%%%    IEEE PES Power Grid Library - Optimal Power Flow - v23.07     %%%%%
%%%%          (https://github.com/power-grid-lib/pglib-opf)           %%%%%
%%%%             Benchmark Group - Active Power Increase              %%%%%
%%%%                         23 - July - 2023                         %%%%%
%%%%                                                                  %%%%%
%%%%%%%%%%%%%%%%%%%%%%%%%%%%%%%%%%%%%%%%%%%%%%%%%%%%%%%%%%%%%%%%%%%%%%%%%%%
function mpc = pglib_opf_case5658_epigrids__api
mpc.version = '2';
mpc.baseMVA = 100.0;

%% bus data
%	bus_i	type	Pd	Qd	Gs	Bs	area	Vm	Va	baseKV	zone	Vmax	Vmin
mpc.bus = [
	27810	 2	 0.0	 0.0	 0.0	 0.0	 6	    1.00000	    0.00000	 500.0	 1	    1.10000	    0.90000;
	27811	 2	 0.0	 0.0	 0.0	 0.0	 6	    1.00000	    0.00000	 500.0	 1	    1.10000	    0.90000;
	27812	 2	 0.0	 0.0	 0.0	 0.0	 6	    1.00000	    0.00000	 500.0	 1	    1.10000	    0.90000;
	27813	 2	 0.0	 0.0	 0.0	 0.0	 6	    1.00000	    0.00000	 230.0	 1	    1.10000	    0.90000;
	27814	 2	 0.0	 0.0	 0.0	 0.0	 6	    1.00000	    0.00000	 500.0	 1	    1.10000	    0.90000;
	27815	 2	 0.0	 0.0	 0.0	 0.0	 6	    1.00000	    0.00000	 500.0	 1	    1.10000	    0.90000;
	27816	 2	 0.0	 0.0	 0.0	 0.0	 6	    1.00000	    0.00000	 500.0	 1	    1.10000	    0.90000;
	27817	 2	 0.0	 0.0	 0.0	 0.0	 6	    1.00000	    0.00000	 230.0	 1	    1.10000	    0.90000;
	27818	 1	 0.0	 0.0	 0.0	 0.0	 6	    1.00000	    0.00000	 500.0	 1	    1.10000	    0.90000;
	27819	 2	 0.0	 0.0	 0.0	 0.0	 6	    1.00000	    0.00000	 230.0	 1	    1.10000	    0.90000;
	27820	 2	 0.0	 0.0	 0.0	 0.0	 6	    1.00000	    0.00000	 230.0	 1	    1.10000	    0.90000;
	27821	 2	 0.0	 0.0	 0.0	 0.0	 6	    1.00000	    0.00000	 500.0	 1	    1.10000	    0.90000;
	27822	 2	 0.0	 0.0	 0.0	 0.0	 6	    1.00000	    0.00000	 500.0	 1	    1.10000	    0.90000;
	27823	 2	 0.0	 0.0	 0.0	 0.0	 6	    1.00000	    0.00000	 138.0	 1	    1.10000	    0.90000;
	27824	 2	 0.0	 0.0	 0.0	 0.0	 6	    1.00000	    0.00000	 138.0	 1	    1.10000	    0.90000;
	27825	 2	 0.0	 0.0	 0.0	 0.0	 6	    1.00000	    0.00000	 230.0	 1	    1.10000	    0.90000;
	27826	 2	 0.0	 0.0	 0.0	 0.0	 6	    1.00000	    0.00000	 230.0	 1	    1.10000	    0.90000;
	27827	 2	 0.0	 0.0	 0.0	 0.0	 6	    1.00000	    0.00000	 230.0	 1	    1.10000	    0.90000;
	27828	 2	 0.0	 0.0	 0.0	 0.0	 6	    1.00000	    0.00000	 138.0	 1	    1.10000	    0.90000;
	27829	 2	 0.0	 0.0	 0.0	 0.0	 6	    1.00000	    0.00000	 138.0	 1	    1.10000	    0.90000;
	27830	 2	 0.0	 0.0	 0.0	 0.0	 6	    1.00000	    0.00000	 500.0	 1	    1.10000	    0.90000;
	27831	 2	 0.0	 0.0	 0.0	 0.0	 6	    1.00000	    0.00000	 500.0	 1	    1.10000	    0.90000;
	27832	 2	 0.0	 0.0	 0.0	 0.0	 6	    1.00000	    0.00000	 230.0	 1	    1.10000	    0.90000;
	27833	 2	 0.0	 0.0	 0.0	 0.0	 6	    1.00000	    0.00000	 138.0	 1	    1.10000	    0.90000;
	27834	 2	 0.0	 0.0	 0.0	 0.0	 6	    1.00000	    0.00000	 500.0	 1	    1.10000	    0.90000;
	27835	 2	 0.0	 0.0	 0.0	 0.0	 6	    1.00000	    0.00000	 230.0	 1	    1.10000	    0.90000;
	27836	 2	 0.0	 0.0	 0.0	 0.0	 6	    1.00000	    0.00000	 500.0	 1	    1.10000	    0.90000;
	27837	 2	 0.0	 0.0	 0.0	 0.0	 6	    1.00000	    0.00000	 500.0	 1	    1.10000	    0.90000;
	27838	 2	 0.0	 0.0	 0.0	 0.0	 6	    1.00000	    0.00000	 500.0	 1	    1.10000	    0.90000;
	27839	 2	 0.0	 0.0	 0.0	 0.0	 6	    1.00000	    0.00000	 500.0	 1	    1.10000	    0.90000;
	27840	 3	 0.0	 0.0	 0.0	 0.0	 6	    1.00000	    0.00000	 500.0	 1	    1.10000	    0.90000;
	27841	 2	 0.0	 0.0	 0.0	 0.0	 6	    1.00000	    0.00000	 500.0	 1	    1.10000	    0.90000;
	27842	 2	 0.0	 0.0	 0.0	 0.0	 6	    1.00000	    0.00000	 500.0	 1	    1.10000	    0.90000;
	27843	 2	 0.0	 0.0	 0.0	 0.0	 6	    1.00000	    0.00000	 230.0	 1	    1.10000	    0.90000;
	27844	 2	 0.0	 0.0	 0.0	 0.0	 6	    1.00000	    0.00000	 230.0	 1	    1.10000	    0.90000;
	27845	 2	 0.0	 0.0	 0.0	 0.0	 6	    1.00000	    0.00000	 500.0	 1	    1.10000	    0.90000;
	27846	 2	 0.0	 0.0	 0.0	 0.0	 6	    1.00000	    0.00000	 138.0	 1	    1.10000	    0.90000;
	27847	 2	 0.0	 0.0	 0.0	 0.0	 6	    1.00000	    0.00000	 230.0	 1	    1.10000	    0.90000;
	27848	 2	 0.0	 0.0	 0.0	 0.0	 6	    1.00000	    0.00000	 500.0	 1	    1.10000	    0.90000;
	27849	 2	 0.0	 0.0	 0.0	 0.0	 6	    1.00000	    0.00000	 230.0	 1	    1.10000	    0.90000;
	27850	 2	 0.0	 0.0	 0.0	 0.0	 6	    1.00000	    0.00000	 230.0	 1	    1.10000	    0.90000;
	27851	 2	 0.0	 0.0	 0.0	 0.0	 6	    1.00000	    0.00000	 138.0	 1	    1.10000	    0.90000;
	27852	 2	 0.0	 0.0	 0.0	 0.0	 6	    1.00000	    0.00000	 138.0	 1	    1.10000	    0.90000;
	27853	 2	 0.0	 0.0	 0.0	 0.0	 6	    1.00000	    0.00000	 138.0	 1	    1.10000	    0.90000;
	27854	 2	 0.0	 0.0	 0.0	 0.0	 6	    1.00000	    0.00000	 230.0	 1	    1.10000	    0.90000;
	27855	 2	 0.0	 0.0	 0.0	 0.0	 6	    1.00000	    0.00000	 500.0	 1	    1.10000	    0.90000;
	27856	 2	 0.0	 0.0	 0.0	 0.0	 6	    1.00000	    0.00000	 500.0	 1	    1.10000	    0.90000;
	27857	 2	 0.0	 0.0	 0.0	 0.0	 6	    1.00000	    0.00000	 230.0	 1	    1.10000	    0.90000;
	27858	 1	 0.0	 0.0	 0.0	 0.0	 6	    1.00000	    0.00000	 138.0	 1	    1.10000	    0.90000;
	27859	 1	 0.0	 0.0	 0.0	 0.0	 6	    1.00000	    0.00000	 500.0	 1	    1.10000	    0.90000;
	27860	 2	 0.0	 0.0	 0.0	 0.0	 6	    1.00000	    0.00000	 230.0	 1	    1.10000	    0.90000;
	27861	 2	 0.0	 0.0	 0.0	 0.0	 6	    1.00000	    0.00000	 138.0	 1	    1.10000	    0.90000;
	27862	 1	 0.0	 0.0	 0.0	 0.0	 6	    1.00000	    0.00000	 500.0	 1	    1.10000	    0.90000;
	27863	 2	 0.0	 0.0	 0.0	 0.0	 6	    1.00000	    0.00000	 500.0	 1	    1.10000	    0.90000;
	27864	 2	 0.0	 0.0	 0.0	 0.0	 6	    1.00000	    0.00000	 138.0	 1	    1.10000	    0.90000;
	27865	 1	 0.0	 0.0	 0.0	 0.0	 6	    1.00000	    0.00000	 230.0	 1	    1.10000	    0.90000;
	27866	 2	 0.0	 0.0	 0.0	 0.0	 6	    1.00000	    0.00000	 138.0	 1	    1.10000	    0.90000;
	27867	 1	 0.0	 0.0	 0.0	 0.0	 6	    1.00000	    0.00000	 230.0	 1	    1.10000	    0.90000;
	27868	 2	 0.0	 0.0	 0.0	 0.0	 6	    1.00000	    0.00000	 138.0	 1	    1.10000	    0.90000;
	27869	 2	 0.0	 0.0	 0.0	 0.0	 6	    1.00000	    0.00000	 138.0	 1	    1.10000	    0.90000;
	27870	 2	 0.0	 0.0	 0.0	 0.0	 6	    1.00000	    0.00000	 138.0	 1	    1.10000	    0.90000;
	27871	 2	 0.0	 0.0	 0.0	 0.0	 6	    1.00000	    0.00000	 69.0	 1	    1.10000	    0.90000;
	27872	 2	 0.0	 0.0	 0.0	 0.0	 6	    1.00000	    0.00000	 230.0	 1	    1.10000	    0.90000;
	27873	 2	 0.0	 0.0	 0.0	 0.0	 6	    1.00000	    0.00000	 138.0	 1	    1.10000	    0.90000;
	27874	 2	 0.0	 0.0	 0.0	 0.0	 6	    1.00000	    0.00000	 138.0	 1	    1.10000	    0.90000;
	27875	 1	 0.0	 0.0	 0.0	 0.0	 6	    1.00000	    0.00000	 138.0	 1	    1.10000	    0.90000;
	27876	 1	 0.0	 0.0	 0.0	 0.0	 6	    1.00000	    0.00000	 138.0	 1	    1.10000	    0.90000;
	27877	 2	 0.0	 0.0	 0.0	 0.0	 6	    1.00000	    0.00000	 138.0	 1	    1.10000	    0.90000;
	27878	 1	 0.0	 0.0	 0.0	 0.0	 6	    1.00000	    0.00000	 138.0	 1	    1.10000	    0.90000;
	27879	 2	 0.0	 0.0	 0.0	 0.0	 6	    1.00000	    0.00000	 138.0	 1	    1.10000	    0.90000;
	27880	 1	 0.0	 0.0	 0.0	 0.0	 6	    1.00000	    0.00000	 230.0	 1	    1.10000	    0.90000;
	27881	 1	 0.0	 0.0	 0.0	 0.0	 6	    1.00000	    0.00000	 138.0	 1	    1.10000	    0.90000;
	27882	 2	 0.0	 0.0	 0.0	 0.0	 6	    1.00000	    0.00000	 69.0	 1	    1.10000	    0.90000;
	27883	 2	 0.0	 0.0	 0.0	 0.0	 6	    1.00000	    0.00000	 138.0	 1	    1.10000	    0.90000;
	27884	 2	 0.0	 0.0	 0.0	 0.0	 6	    1.00000	    0.00000	 69.0	 1	    1.10000	    0.90000;
	27885	 2	 0.0	 0.0	 0.0	 0.0	 6	    1.00000	    0.00000	 138.0	 1	    1.10000	    0.90000;
	27886	 2	 0.0	 0.0	 0.0	 0.0	 6	    1.00000	    0.00000	 69.0	 1	    1.10000	    0.90000;
	27887	 2	 0.0	 0.0	 0.0	 0.0	 6	    1.00000	    0.00000	 69.0	 1	    1.10000	    0.90000;
	27888	 2	 0.0	 0.0	 0.0	 0.0	 6	    1.00000	    0.00000	 138.0	 1	    1.10000	    0.90000;
	27889	 1	 0.0	 0.0	 0.0	 0.0	 6	    1.00000	    0.00000	 138.0	 1	    1.10000	    0.90000;
	27890	 2	 0.0	 0.0	 0.0	 0.0	 6	    1.00000	    0.00000	 69.0	 1	    1.10000	    0.90000;
	27891	 2	 0.0	 0.0	 0.0	 0.0	 6	    1.00000	    0.00000	 138.0	 1	    1.10000	    0.90000;
	27892	 2	 0.0	 0.0	 0.0	 0.0	 6	    1.00000	    0.00000	 69.0	 1	    1.10000	    0.90000;
	27893	 2	 0.0	 0.0	 0.0	 0.0	 6	    1.00000	    0.00000	 69.0	 1	    1.10000	    0.90000;
	27894	 1	 0.0	 0.0	 0.0	 0.0	 6	    1.00000	    0.00000	 500.0	 1	    1.10000	    0.90000;
	27895	 2	 0.0	 0.0	 0.0	 0.0	 6	    1.00000	    0.00000	 500.0	 1	    1.10000	    0.90000;
	27896	 1	 0.0	 0.0	 0.0	 0.0	 6	    1.00000	    0.00000	 138.0	 1	    1.10000	    0.90000;
	27897	 2	 0.0	 0.0	 0.0	 0.0	 6	    1.00000	    0.00000	 138.0	 1	    1.10000	    0.90000;
	27898	 1	 0.0	 0.0	 0.0	 0.0	 6	    1.00000	    0.00000	 138.0	 1	    1.10000	    0.90000;
	27899	 2	 0.0	 0.0	 0.0	 0.0	 6	    1.00000	    0.00000	 138.0	 1	    1.10000	    0.90000;
	27900	 2	 0.0	 0.0	 0.0	 0.0	 6	    1.00000	    0.00000	 138.0	 1	    1.10000	    0.90000;
	27901	 2	 0.0	 0.0	 0.0	 0.0	 6	    1.00000	    0.00000	 138.0	 1	    1.10000	    0.90000;
	27902	 2	 0.0	 0.0	 0.0	 0.0	 6	    1.00000	    0.00000	 138.0	 1	    1.10000	    0.90000;
	27903	 2	 0.0	 0.0	 0.0	 0.0	 6	    1.00000	    0.00000	 138.0	 1	    1.10000	    0.90000;
	27904	 2	 0.0	 0.0	 0.0	 0.0	 6	    1.00000	    0.00000	 69.0	 1	    1.10000	    0.90000;
	27905	 2	 0.0	 0.0	 0.0	 0.0	 6	    1.00000	    0.00000	 69.0	 1	    1.10000	    0.90000;
	27906	 2	 0.0	 0.0	 0.0	 0.0	 6	    1.00000	    0.00000	 69.0	 1	    1.10000	    0.90000;
	27907	 2	 0.0	 0.0	 0.0	 0.0	 6	    1.00000	    0.00000	 69.0	 1	    1.10000	    0.90000;
	27908	 2	 0.0	 0.0	 0.0	 0.0	 6	    1.00000	    0.00000	 69.0	 1	    1.10000	    0.90000;
	27909	 1	 0.0	 0.0	 0.0	 0.0	 6	    1.00000	    0.00000	 138.0	 1	    1.10000	    0.90000;
	27910	 2	 0.0	 0.0	 0.0	 0.0	 6	    1.00000	    0.00000	 69.0	 1	    1.10000	    0.90000;
	27911	 2	 0.0	 0.0	 0.0	 0.0	 6	    1.00000	    0.00000	 69.0	 1	    1.10000	    0.90000;
	27912	 2	 0.0	 0.0	 0.0	 0.0	 6	    1.00000	    0.00000	 69.0	 1	    1.10000	    0.90000;
	27913	 2	 0.0	 0.0	 0.0	 0.0	 6	    1.00000	    0.00000	 69.0	 1	    1.10000	    0.90000;
	27914	 2	 0.0	 0.0	 0.0	 0.0	 6	    1.00000	    0.00000	 138.0	 1	    1.10000	    0.90000;
	28026	 1	 12.86	 6.48	 0.0	 0.0	 6	    1.00000	    0.00000	 69.0	 1	    1.10000	    0.90000;
	28027	 1	 0.0	 0.0	 0.0	 0.0	 6	    1.00000	    0.00000	 500.0	 1	    1.10000	    0.90000;
	28028	 1	 21.07	 9.13	 0.0	 0.0	 6	    1.00000	    0.00000	 138.0	 1	    1.10000	    0.90000;
	28029	 1	 0.0	 0.0	 0.0	 0.0	 6	    1.00000	    0.00000	 138.0	 1	    1.10000	    0.90000;
	28030	 1	 15.92	 7.20	 0.0	 0.0	 6	    1.00000	    0.00000	 69.0	 1	    1.10000	    0.90000;
	28031	 1	 8.97	 3.64	 0.0	 0.0	 6	    1.00000	    0.00000	 69.0	 1	    1.10000	    0.90000;
	28032	 1	 0.0	 0.0	 0.0	 0.0	 6	    1.00000	    0.00000	 138.0	 1	    1.10000	    0.90000;
	28033	 1	 13.17	 5.40	 0.0	 0.0	 6	    1.00000	    0.00000	 69.0	 1	    1.10000	    0.90000;
	28034	 1	 7.03	 3.23	 0.0	 0.0	 6	    1.00000	    0.00000	 69.0	 1	    1.10000	    0.90000;
	28035	 1	 14.50	 6.60	 0.0	 0.0	 6	    1.00000	    0.00000	 69.0	 1	    1.10000	    0.90000;
	28036	 1	 4.07	 1.99	 0.0	 0.0	 6	    1.00000	    0.00000	 69.0	 1	    1.10000	    0.90000;
	28037	 1	 11.17	 5.84	 0.0	 0.0	 6	    1.00000	    0.00000	 69.0	 1	    1.10000	    0.90000;
	28038	 1	 0.0	 0.0	 0.0	 0.0	 6	    1.00000	    0.00000	 138.0	 1	    1.10000	    0.90000;
	28039	 1	 9.27	 4.47	 0.0	 0.0	 6	    1.00000	    0.00000	 69.0	 1	    1.10000	    0.90000;
	28040	 1	 5.28	 2.27	 0.0	 0.0	 6	    1.00000	    0.00000	 69.0	 1	    1.10000	    0.90000;
	28041	 1	 0.0	 0.0	 0.0	 0.0	 6	    1.00000	    0.00000	 138.0	 1	    1.10000	    0.90000;
	28042	 1	 7.96	 3.35	 0.0	 0.0	 6	    1.00000	    0.00000	 138.0	 1	    1.10000	    0.90000;
	28043	 1	 7.94	 3.42	 0.0	 0.0	 6	    1.00000	    0.00000	 69.0	 1	    1.10000	    0.90000;
	28044	 1	 5.70	 2.19	 0.0	 0.0	 6	    1.00000	    0.00000	 69.0	 1	    1.10000	    0.90000;
	28045	 1	 9.26	 4.34	 0.0	 0.0	 6	    1.00000	    0.00000	 69.0	 1	    1.10000	    0.90000;
	28046	 1	 3.04	 1.37	 0.0	 0.0	 6	    1.00000	    0.00000	 69.0	 1	    1.10000	    0.90000;
	28047	 1	 7.29	 3.07	 0.0	 0.0	 6	    1.00000	    0.00000	 69.0	 1	    1.10000	    0.90000;
	28048	 1	 9.03	 4.03	 0.0	 0.0	 6	    1.00000	    0.00000	 69.0	 1	    1.10000	    0.90000;
	28049	 1	 3.81	 1.57	 0.0	 0.0	 6	    1.00000	    0.00000	 69.0	 1	    1.10000	    0.90000;
	28050	 1	 15.91	 5.91	 0.0	 0.0	 6	    1.00000	    0.00000	 69.0	 1	    1.10000	    0.90000;
	28051	 1	 2.82	 1.40	 0.0	 0.0	 6	    1.00000	    0.00000	 69.0	 1	    1.10000	    0.90000;
	28052	 1	 15.64	 7.83	 0.0	 0.0	 6	    1.00000	    0.00000	 69.0	 1	    1.10000	    0.90000;
	28053	 1	 13.74	 6.32	 0.0	 0.0	 6	    1.00000	    0.00000	 69.0	 1	    1.10000	    0.90000;
	28054	 1	 11.67	 5.02	 0.0	 0.0	 6	    1.00000	    0.00000	 69.0	 1	    1.10000	    0.90000;
	28055	 1	 13.53	 6.44	 0.0	 0.0	 6	    1.00000	    0.00000	 138.0	 1	    1.10000	    0.90000;
	28056	 1	 12.86	 5.77	 0.0	 0.0	 6	    1.00000	    0.00000	 69.0	 1	    1.10000	    0.90000;
	28057	 1	 0.0	 0.0	 0.0	 0.0	 6	    1.00000	    0.00000	 138.0	 1	    1.10000	    0.90000;
	28058	 1	 14.16	 5.04	 0.0	 0.0	 6	    1.00000	    0.00000	 138.0	 1	    1.10000	    0.90000;
	28059	 1	 22.49	 11.45	 0.0	 0.0	 6	    1.00000	    0.00000	 138.0	 1	    1.10000	    0.90000;
	28060	 1	 9.61	 4.77	 0.0	 0.0	 6	    1.00000	    0.00000	 69.0	 1	    1.10000	    0.90000;
	28061	 1	 3.77	 1.70	 0.0	 0.0	 6	    1.00000	    0.00000	 69.0	 1	    1.10000	    0.90000;
	28062	 1	 0.0	 0.0	 0.0	 0.0	 6	    1.00000	    0.00000	 138.0	 1	    1.10000	    0.90000;
	28063	 1	 24.02	 7.50	 0.0	 0.0	 6	    1.00000	    0.00000	 69.0	 1	    1.10000	    0.90000;
	28064	 1	 6.78	 3.07	 0.0	 0.0	 6	    1.00000	    0.00000	 69.0	 1	    1.10000	    0.90000;
	28065	 1	 65.38	 31.47	 0.0	 0.0	 6	    1.00000	    0.00000	 500.0	 1	    1.10000	    0.90000;
	28066	 1	 0.0	 0.0	 0.0	 0.0	 6	    1.00000	    0.00000	 138.0	 1	    1.10000	    0.90000;
	28067	 1	 3.34	 1.55	 0.0	 0.0	 6	    1.00000	    0.00000	 69.0	 1	    1.10000	    0.90000;
	28068	 1	 1.59	 0.62	 0.0	 0.0	 6	    1.00000	    0.00000	 69.0	 1	    1.10000	    0.90000;
	28069	 1	 11.86	 4.34	 0.0	 0.0	 6	    1.00000	    0.00000	 69.0	 1	    1.10000	    0.90000;
	28070	 1	 0.0	 0.0	 0.0	 0.0	 6	    1.00000	    0.00000	 138.0	 1	    1.10000	    0.90000;
	28071	 1	 0.0	 0.0	 0.0	 0.0	 6	    1.00000	    0.00000	 138.0	 1	    1.10000	    0.90000;
	28072	 1	 0.0	 0.0	 0.0	 0.0	 6	    1.00000	    0.00000	 138.0	 1	    1.10000	    0.90000;
	28073	 1	 5.92	 2.46	 0.0	 0.0	 6	    1.00000	    0.00000	 69.0	 1	    1.10000	    0.90000;
	28074	 1	 3.68	 1.47	 0.0	 0.0	 6	    1.00000	    0.00000	 69.0	 1	    1.10000	    0.90000;
	28075	 1	 0.0	 0.0	 0.0	 0.0	 6	    1.00000	    0.00000	 138.0	 1	    1.10000	    0.90000;
	28076	 1	 9.06	 3.81	 0.0	 0.0	 6	    1.00000	    0.00000	 138.0	 1	    1.10000	    0.90000;
	28077	 1	 10.63	 4.52	 0.0	 0.0	 6	    1.00000	    0.00000	 69.0	 1	    1.10000	    0.90000;
	28078	 1	 3.63	 1.44	 0.0	 0.0	 6	    1.00000	    0.00000	 69.0	 1	    1.10000	    0.90000;
	28079	 1	 21.15	 7.84	 0.0	 0.0	 6	    1.00000	    0.00000	 69.0	 1	    1.10000	    0.90000;
	28080	 1	 12.15	 4.97	 0.0	 0.0	 6	    1.00000	    0.00000	 69.0	 1	    1.10000	    0.90000;
	28081	 1	 3.16	 1.62	 0.0	 0.0	 6	    1.00000	    0.00000	 69.0	 1	    1.10000	    0.90000;
	28082	 1	 0.0	 0.0	 0.0	 0.0	 6	    1.00000	    0.00000	 138.0	 1	    1.10000	    0.90000;
	28083	 1	 17.58	 6.27	 0.0	 0.0	 6	    1.00000	    0.00000	 69.0	 1	    1.10000	    0.90000;
	28084	 1	 15.36	 2.94	 0.0	 0.0	 6	    1.00000	    0.00000	 69.0	 1	    1.10000	    0.90000;
	28085	 1	 9.96	 4.51	 0.0	 0.0	 6	    1.00000	    0.00000	 69.0	 1	    1.10000	    0.90000;
	28086	 1	 12.26	 4.27	 0.0	 0.0	 6	    1.00000	    0.00000	 69.0	 1	    1.10000	    0.90000;
	28087	 1	 0.0	 0.0	 0.0	 0.0	 6	    1.00000	    0.00000	 138.0	 1	    1.10000	    0.90000;
	28088	 1	 0.0	 0.0	 0.0	 0.0	 6	    1.00000	    0.00000	 230.0	 1	    1.10000	    0.90000;
	28089	 1	 12.45	 6.48	 0.0	 0.0	 6	    1.00000	    0.00000	 138.0	 1	    1.10000	    0.90000;
	28090	 1	 17.88	 7.30	 0.0	 0.0	 6	    1.00000	    0.00000	 69.0	 1	    1.10000	    0.90000;
	28091	 1	 1.67	 0.69	 0.0	 0.0	 6	    1.00000	    0.00000	 69.0	 1	    1.10000	    0.90000;
	28092	 1	 0.0	 0.0	 0.0	 0.0	 6	    1.00000	    0.00000	 138.0	 1	    1.10000	    0.90000;
	28093	 1	 0.0	 0.0	 0.0	 0.0	 6	    1.00000	    0.00000	 138.0	 1	    1.10000	    0.90000;
	28094	 1	 5.67	 2.37	 0.0	 0.0	 6	    1.00000	    0.00000	 69.0	 1	    1.10000	    0.90000;
	28095	 1	 7.23	 3.31	 0.0	 0.0	 6	    1.00000	    0.00000	 69.0	 1	    1.10000	    0.90000;
	28096	 1	 5.21	 2.00	 0.0	 0.0	 6	    1.00000	    0.00000	 69.0	 1	    1.10000	    0.90000;
	28097	 1	 11.14	 5.54	 0.0	 0.0	 6	    1.00000	    0.00000	 69.0	 1	    1.10000	    0.90000;
	28098	 1	 28.29	 8.04	 0.0	 0.0	 6	    1.00000	    0.00000	 69.0	 1	    1.10000	    0.90000;
	28099	 1	 9.53	 4.24	 0.0	 0.0	 6	    1.00000	    0.00000	 138.0	 1	    1.10000	    0.90000;
	28100	 1	 0.0	 0.0	 0.0	 0.0	 6	    1.00000	    0.00000	 138.0	 1	    1.10000	    0.90000;
	28101	 1	 0.0	 0.0	 0.0	 0.0	 6	    1.00000	    0.00000	 138.0	 1	    1.10000	    0.90000;
	28102	 1	 23.52	 9.49	 0.0	 0.0	 6	    1.00000	    0.00000	 69.0	 1	    1.10000	    0.90000;
	28103	 1	 11.06	 5.55	 0.0	 0.0	 6	    1.00000	    0.00000	 138.0	 1	    1.10000	    0.90000;
	28104	 1	 0.0	 0.0	 0.0	 0.0	 6	    1.00000	    0.00000	 138.0	 1	    1.10000	    0.90000;
	28105	 1	 0.0	 0.0	 0.0	 0.0	 6	    1.00000	    0.00000	 138.0	 1	    1.10000	    0.90000;
	28106	 1	 19.00	 7.75	 0.0	 0.0	 6	    1.00000	    0.00000	 69.0	 1	    1.10000	    0.90000;
	28107	 1	 24.98	 9.24	 0.0	 0.0	 6	    1.00000	    0.00000	 69.0	 1	    1.10000	    0.90000;
	28108	 1	 0.0	 0.0	 0.0	 0.0	 6	    1.00000	    0.00000	 138.0	 1	    1.10000	    0.90000;
	28109	 1	 10.20	 4.16	 0.0	 0.0	 6	    1.00000	    0.00000	 69.0	 1	    1.10000	    0.90000;
	28110	 1	 19.09	 8.79	 0.0	 0.0	 6	    1.00000	    0.00000	 69.0	 1	    1.10000	    0.90000;
	28111	 1	 7.79	 3.53	 0.0	 0.0	 6	    1.00000	    0.00000	 69.0	 1	    1.10000	    0.90000;
	28112	 1	 0.0	 0.0	 0.0	 0.0	 6	    1.00000	    0.00000	 230.0	 1	    1.10000	    0.90000;
	28113	 1	 17.99	 7.34	 0.0	 0.0	 6	    1.00000	    0.00000	 69.0	 1	    1.10000	    0.90000;
	28114	 1	 7.98	 3.49	 0.0	 0.0	 6	    1.00000	    0.00000	 69.0	 1	    1.10000	    0.90000;
	28115	 1	 12.49	 5.38	 0.0	 0.0	 6	    1.00000	    0.00000	 69.0	 1	    1.10000	    0.90000;
	28116	 1	 7.39	 3.72	 0.0	 0.0	 6	    1.00000	    0.00000	 69.0	 1	    1.10000	    0.90000;
	28117	 1	 11.43	 5.49	 0.0	 0.0	 6	    1.00000	    0.00000	 69.0	 1	    1.10000	    0.90000;
	28118	 1	 10.83	 4.16	 0.0	 0.0	 6	    1.00000	    0.00000	 69.0	 1	    1.10000	    0.90000;
	28119	 1	 10.64	 4.93	 0.0	 0.0	 6	    1.00000	    0.00000	 69.0	 1	    1.10000	    0.90000;
	28120	 1	 1.68	 0.78	 0.0	 0.0	 6	    1.00000	    0.00000	 69.0	 1	    1.10000	    0.90000;
	28121	 1	 2.24	 0.87	 0.0	 0.0	 6	    1.00000	    0.00000	 69.0	 1	    1.10000	    0.90000;
	28122	 1	 5.19	 1.75	 0.0	 0.0	 6	    1.00000	    0.00000	 69.0	 1	    1.10000	    0.90000;
	28123	 1	 4.17	 1.84	 0.0	 0.0	 6	    1.00000	    0.00000	 69.0	 1	    1.10000	    0.90000;
	28124	 1	 8.52	 4.21	 0.0	 0.0	 6	    1.00000	    0.00000	 138.0	 1	    1.10000	    0.90000;
	28125	 1	 0.0	 0.0	 0.0	 0.0	 6	    1.00000	    0.00000	 138.0	 1	    1.10000	    0.90000;
	28126	 1	 6.47	 2.44	 0.0	 0.0	 6	    1.00000	    0.00000	 69.0	 1	    1.10000	    0.90000;
	28127	 1	 0.0	 0.0	 0.0	 0.0	 6	    1.00000	    0.00000	 230.0	 1	    1.10000	    0.90000;
	28128	 1	 8.06	 3.83	 0.0	 0.0	 6	    1.00000	    0.00000	 69.0	 1	    1.10000	    0.90000;
	28129	 1	 24.19	 11.43	 0.0	 0.0	 6	    1.00000	    0.00000	 69.0	 1	    1.10000	    0.90000;
	28130	 1	 34.47	 13.59	 0.0	 0.0	 6	    1.00000	    0.00000	 69.0	 1	    1.10000	    0.90000;
	28131	 1	 0.0	 0.0	 0.0	 0.0	 6	    1.00000	    0.00000	 500.0	 1	    1.10000	    0.90000;
	28132	 1	 13.19	 2.45	 0.0	 0.0	 6	    1.00000	    0.00000	 69.0	 1	    1.10000	    0.90000;
	28133	 1	 0.0	 0.0	 0.0	 0.0	 6	    1.00000	    0.00000	 500.0	 1	    1.10000	    0.90000;
	28134	 1	 13.92	 5.70	 0.0	 0.0	 6	    1.00000	    0.00000	 69.0	 1	    1.10000	    0.90000;
	28135	 1	 0.0	 0.0	 0.0	 0.0	 6	    1.00000	    0.00000	 230.0	 1	    1.10000	    0.90000;
	28136	 1	 7.72	 3.88	 0.0	 0.0	 6	    1.00000	    0.00000	 69.0	 1	    1.10000	    0.90000;
	28137	 1	 0.0	 0.0	 0.0	 0.0	 6	    1.00000	    0.00000	 138.0	 1	    1.10000	    0.90000;
	28138	 1	 0.0	 0.0	 0.0	 0.0	 6	    1.00000	    0.00000	 230.0	 1	    1.10000	    0.90000;
	28139	 1	 0.0	 0.0	 0.0	 0.0	 6	    1.00000	    0.00000	 230.0	 1	    1.10000	    0.90000;
	28140	 1	 11.95	 4.82	 0.0	 0.0	 6	    1.00000	    0.00000	 138.0	 1	    1.10000	    0.90000;
	28141	 1	 6.49	 3.49	 0.0	 0.0	 6	    1.00000	    0.00000	 69.0	 1	    1.10000	    0.90000;
	28142	 1	 6.90	 3.18	 0.0	 0.0	 6	    1.00000	    0.00000	 69.0	 1	    1.10000	    0.90000;
	28143	 1	 17.29	 8.90	 0.0	 0.0	 6	    1.00000	    0.00000	 230.0	 1	    1.10000	    0.90000;
	28144	 1	 13.00	 5.42	 0.0	 0.0	 6	    1.00000	    0.00000	 69.0	 1	    1.10000	    0.90000;
	28145	 1	 0.0	 0.0	 0.0	 0.0	 6	    1.00000	    0.00000	 230.0	 1	    1.10000	    0.90000;
	28146	 1	 20.00	 9.13	 0.0	 0.0	 6	    1.00000	    0.00000	 230.0	 1	    1.10000	    0.90000;
	28147	 1	 9.89	 5.32	 0.0	 0.0	 6	    1.00000	    0.00000	 69.0	 1	    1.10000	    0.90000;
	28148	 1	 0.0	 0.0	 0.0	 0.0	 6	    1.00000	    0.00000	 230.0	 1	    1.10000	    0.90000;
	28149	 1	 14.67	 5.79	 0.0	 0.0	 6	    1.00000	    0.00000	 230.0	 1	    1.10000	    0.90000;
	28150	 1	 9.67	 4.36	 0.0	 0.0	 6	    1.00000	    0.00000	 69.0	 1	    1.10000	    0.90000;
	28151	 1	 0.0	 0.0	 0.0	 0.0	 6	    1.00000	    0.00000	 230.0	 1	    1.10000	    0.90000;
	28152	 1	 6.88	 2.92	 0.0	 0.0	 6	    1.00000	    0.00000	 69.0	 1	    1.10000	    0.90000;
	28153	 1	 6.11	 3.29	 0.0	 0.0	 6	    1.00000	    0.00000	 138.0	 1	    1.10000	    0.90000;
	28154	 1	 0.0	 0.0	 0.0	 0.0	 6	    1.00000	    0.00000	 230.0	 1	    1.10000	    0.90000;
	28155	 1	 17.09	 7.52	 0.0	 0.0	 6	    1.00000	    0.00000	 69.0	 1	    1.10000	    0.90000;
	28156	 1	 10.72	 4.26	 0.0	 0.0	 6	    1.00000	    0.00000	 69.0	 1	    1.10000	    0.90000;
	28157	 1	 0.0	 0.0	 0.0	 0.0	 6	    1.00000	    0.00000	 138.0	 1	    1.10000	    0.90000;
	28158	 1	 11.17	 4.91	 0.0	 0.0	 6	    1.00000	    0.00000	 69.0	 1	    1.10000	    0.90000;
	28159	 1	 6.17	 2.69	 0.0	 0.0	 6	    1.00000	    0.00000	 69.0	 1	    1.10000	    0.90000;
	28160	 1	 0.0	 0.0	 0.0	 0.0	 6	    1.00000	    0.00000	 138.0	 1	    1.10000	    0.90000;
	28161	 1	 11.14	 4.69	 0.0	 0.0	 6	    1.00000	    0.00000	 138.0	 1	    1.10000	    0.90000;
	28162	 1	 0.0	 0.0	 0.0	 0.0	 6	    1.00000	    0.00000	 230.0	 1	    1.10000	    0.90000;
	28163	 1	 5.76	 2.63	 0.0	 0.0	 6	    1.00000	    0.00000	 69.0	 1	    1.10000	    0.90000;
	28164	 1	 16.46	 8.19	 0.0	 0.0	 6	    1.00000	    0.00000	 69.0	 1	    1.10000	    0.90000;
	28165	 1	 8.17	 3.23	 0.0	 0.0	 6	    1.00000	    0.00000	 69.0	 1	    1.10000	    0.90000;
	28166	 1	 12.49	 5.52	 0.0	 0.0	 6	    1.00000	    0.00000	 69.0	 1	    1.10000	    0.90000;
	28167	 1	 9.17	 3.41	 0.0	 0.0	 6	    1.00000	    0.00000	 69.0	 1	    1.10000	    0.90000;
	28168	 1	 8.35	 3.82	 0.0	 0.0	 6	    1.00000	    0.00000	 69.0	 1	    1.10000	    0.90000;
	28169	 1	 7.21	 3.36	 0.0	 0.0	 6	    1.00000	    0.00000	 69.0	 1	    1.10000	    0.90000;
	28170	 1	 0.0	 0.0	 0.0	 0.0	 6	    1.00000	    0.00000	 138.0	 1	    1.10000	    0.90000;
	28171	 1	 0.0	 0.0	 0.0	 0.0	 6	    1.00000	    0.00000	 138.0	 1	    1.10000	    0.90000;
	28172	 1	 22.00	 9.48	 0.0	 0.0	 6	    1.00000	    0.00000	 69.0	 1	    1.10000	    0.90000;
	28173	 1	 6.72	 2.81	 0.0	 0.0	 6	    1.00000	    0.00000	 69.0	 1	    1.10000	    0.90000;
	28174	 1	 16.84	 8.08	 0.0	 0.0	 6	    1.00000	    0.00000	 69.0	 1	    1.10000	    0.90000;
	28175	 1	 10.80	 5.05	 0.0	 0.0	 6	    1.00000	    0.00000	 69.0	 1	    1.10000	    0.90000;
	28176	 1	 10.47	 5.11	 0.0	 0.0	 6	    1.00000	    0.00000	 69.0	 1	    1.10000	    0.90000;
	28177	 1	 6.14	 2.58	 0.0	 0.0	 6	    1.00000	    0.00000	 69.0	 1	    1.10000	    0.90000;
	28178	 1	 0.0	 0.0	 0.0	 0.0	 6	    1.00000	    0.00000	 500.0	 1	    1.10000	    0.90000;
	28179	 1	 0.0	 0.0	 0.0	 0.0	 6	    1.00000	    0.00000	 138.0	 1	    1.10000	    0.90000;
	28180	 1	 0.0	 0.0	 0.0	 0.0	 6	    1.00000	    0.00000	 138.0	 1	    1.10000	    0.90000;
	28181	 1	 0.0	 0.0	 0.0	 0.0	 6	    1.00000	    0.00000	 138.0	 1	    1.10000	    0.90000;
	28182	 1	 0.0	 0.0	 0.0	 0.0	 6	    1.00000	    0.00000	 138.0	 1	    1.10000	    0.90000;
	28183	 1	 6.57	 2.56	 0.0	 0.0	 6	    1.00000	    0.00000	 69.0	 1	    1.10000	    0.90000;
	28184	 1	 4.49	 1.85	 0.0	 0.0	 6	    1.00000	    0.00000	 69.0	 1	    1.10000	    0.90000;
	28185	 1	 0.0	 0.0	 0.0	 0.0	 6	    1.00000	    0.00000	 138.0	 1	    1.10000	    0.90000;
	28186	 1	 7.47	 3.59	 0.0	 0.0	 6	    1.00000	    0.00000	 69.0	 1	    1.10000	    0.90000;
	28187	 1	 12.87	 5.75	 0.0	 0.0	 6	    1.00000	    0.00000	 69.0	 1	    1.10000	    0.90000;
	28188	 1	 0.0	 0.0	 0.0	 0.0	 6	    1.00000	    0.00000	 138.0	 1	    1.10000	    0.90000;
	28189	 1	 28.52	 8.38	 0.0	 0.0	 6	    1.00000	    0.00000	 69.0	 1	    1.10000	    0.90000;
	28190	 1	 3.81	 1.48	 0.0	 0.0	 6	    1.00000	    0.00000	 69.0	 1	    1.10000	    0.90000;
	28191	 1	 10.53	 5.20	 0.0	 0.0	 6	    1.00000	    0.00000	 138.0	 1	    1.10000	    0.90000;
	28192	 1	 0.0	 0.0	 0.0	 0.0	 6	    1.00000	    0.00000	 138.0	 1	    1.10000	    0.90000;
	28193	 1	 9.81	 4.97	 0.0	 0.0	 6	    1.00000	    0.00000	 69.0	 1	    1.10000	    0.90000;
	28194	 1	 0.0	 0.0	 0.0	 0.0	 6	    1.00000	    0.00000	 138.0	 1	    1.10000	    0.90000;
	28195	 1	 5.79	 2.96	 0.0	 0.0	 6	    1.00000	    0.00000	 69.0	 1	    1.10000	    0.90000;
	28196	 1	 8.56	 3.67	 0.0	 0.0	 6	    1.00000	    0.00000	 69.0	 1	    1.10000	    0.90000;
	28197	 1	 4.00	 1.63	 0.0	 0.0	 6	    1.00000	    0.00000	 69.0	 1	    1.10000	    0.90000;
	28198	 1	 6.02	 2.46	 0.0	 0.0	 6	    1.00000	    0.00000	 69.0	 1	    1.10000	    0.90000;
	28199	 1	 2.70	 1.04	 0.0	 0.0	 6	    1.00000	    0.00000	 69.0	 1	    1.10000	    0.90000;
	28200	 1	 6.82	 3.23	 0.0	 0.0	 6	    1.00000	    0.00000	 69.0	 1	    1.10000	    0.90000;
	28201	 1	 6.60	 3.14	 0.0	 0.0	 6	    1.00000	    0.00000	 69.0	 1	    1.10000	    0.90000;
	28202	 1	 10.15	 3.98	 0.0	 0.0	 6	    1.00000	    0.00000	 69.0	 1	    1.10000	    0.90000;
	28203	 1	 6.53	 3.11	 0.0	 0.0	 6	    1.00000	    0.00000	 69.0	 1	    1.10000	    0.90000;
	28204	 1	 11.30	 4.62	 0.0	 0.0	 6	    1.00000	    0.00000	 69.0	 1	    1.10000	    0.90000;
	28205	 1	 6.45	 2.58	 0.0	 0.0	 6	    1.00000	    0.00000	 69.0	 1	    1.10000	    0.90000;
	28206	 1	 6.60	 2.71	 0.0	 0.0	 6	    1.00000	    0.00000	 69.0	 1	    1.10000	    0.90000;
	28207	 1	 10.59	 4.11	 0.0	 0.0	 6	    1.00000	    0.00000	 69.0	 1	    1.10000	    0.90000;
	28208	 1	 1.98	 0.97	 0.0	 0.0	 6	    1.00000	    0.00000	 69.0	 1	    1.10000	    0.90000;
	28209	 1	 8.90	 4.15	 0.0	 0.0	 6	    1.00000	    0.00000	 69.0	 1	    1.10000	    0.90000;
	28210	 1	 2.31	 1.10	 0.0	 0.0	 6	    1.00000	    0.00000	 69.0	 1	    1.10000	    0.90000;
	28211	 1	 3.12	 1.27	 0.0	 0.0	 6	    1.00000	    0.00000	 69.0	 1	    1.10000	    0.90000;
	28212	 1	 6.57	 3.16	 0.0	 0.0	 6	    1.00000	    0.00000	 69.0	 1	    1.10000	    0.90000;
	28213	 1	 4.59	 1.95	 0.0	 0.0	 6	    1.00000	    0.00000	 69.0	 1	    1.10000	    0.90000;
	28214	 1	 4.73	 2.13	 0.0	 0.0	 6	    1.00000	    0.00000	 69.0	 1	    1.10000	    0.90000;
	28215	 1	 6.39	 3.03	 0.0	 0.0	 6	    1.00000	    0.00000	 69.0	 1	    1.10000	    0.90000;
	28216	 1	 3.44	 1.34	 0.0	 0.0	 6	    1.00000	    0.00000	 69.0	 1	    1.10000	    0.90000;
	28217	 1	 4.11	 1.66	 0.0	 0.0	 6	    1.00000	    0.00000	 69.0	 1	    1.10000	    0.90000;
	28218	 1	 7.85	 3.15	 0.0	 0.0	 6	    1.00000	    0.00000	 69.0	 1	    1.10000	    0.90000;
	28219	 1	 0.0	 0.0	 0.0	 0.0	 6	    1.00000	    0.00000	 138.0	 1	    1.10000	    0.90000;
	28220	 1	 0.0	 0.0	 0.0	 0.0	 6	    1.00000	    0.00000	 138.0	 1	    1.10000	    0.90000;
	28221	 1	 4.25	 1.98	 0.0	 0.0	 6	    1.00000	    0.00000	 69.0	 1	    1.10000	    0.90000;
	28222	 1	 9.48	 3.88	 0.0	 0.0	 6	    1.00000	    0.00000	 69.0	 1	    1.10000	    0.90000;
	28223	 1	 11.75	 4.76	 0.0	 0.0	 6	    1.00000	    0.00000	 69.0	 1	    1.10000	    0.90000;
	28224	 1	 3.71	 1.74	 0.0	 0.0	 6	    1.00000	    0.00000	 69.0	 1	    1.10000	    0.90000;
	28225	 1	 7.66	 3.66	 0.0	 0.0	 6	    1.00000	    0.00000	 138.0	 1	    1.10000	    0.90000;
	28226	 1	 7.93	 4.12	 0.0	 0.0	 6	    1.00000	    0.00000	 69.0	 1	    1.10000	    0.90000;
	28227	 1	 18.43	 8.59	 0.0	 0.0	 6	    1.00000	    0.00000	 69.0	 1	    1.10000	    0.90000;
	28228	 1	 8.11	 3.63	 0.0	 0.0	 6	    1.00000	    0.00000	 138.0	 1	    1.10000	    0.90000;
	28229	 1	 13.29	 6.14	 0.0	 0.0	 6	    1.00000	    0.00000	 230.0	 1	    1.10000	    0.90000;
	28230	 1	 36.21	 18.00	 0.0	 0.0	 6	    1.00000	    0.00000	 138.0	 1	    1.10000	    0.90000;
	28231	 1	 0.0	 0.0	 0.0	 0.0	 6	    1.00000	    0.00000	 138.0	 1	    1.10000	    0.90000;
	28232	 1	 0.0	 0.0	 0.0	 0.0	 6	    1.00000	    0.00000	 500.0	 1	    1.10000	    0.90000;
	28233	 1	 0.0	 0.0	 0.0	 0.0	 6	    1.00000	    0.00000	 138.0	 1	    1.10000	    0.90000;
	28234	 1	 12.85	 5.20	 0.0	 0.0	 6	    1.00000	    0.00000	 69.0	 1	    1.10000	    0.90000;
	28235	 1	 0.0	 0.0	 0.0	 0.0	 6	    1.00000	    0.00000	 500.0	 1	    1.10000	    0.90000;