%%%%%%%%%%%%%%%%%%%%%%%%%%%%%%%%%%%%%%%%%%%%%%%%%%%%%%%%%%%%%%%%%%%%%%%%%%%
%%%%                                                                  %%%%%
%%%%    IEEE PES Power Grid Library - Optimal Power Flow - v21.07     %%%%%
%%%%          (https://github.com/power-grid-lib/pglib-opf)           %%%%%
%%%%             Benchmark Group - Active Power Increase              %%%%%
%%%%                         29 - July - 2021                         %%%%%
%%%%                                                                  %%%%%
%%%%%%%%%%%%%%%%%%%%%%%%%%%%%%%%%%%%%%%%%%%%%%%%%%%%%%%%%%%%%%%%%%%%%%%%%%%
function mpc = pglib_opf_case3375wp_k__api
mpc.version = '2';
mpc.baseMVA = 100.0;

%% bus data
%	bus_i	type	Pd	Qd	Gs	Bs	area	Vm	Va	baseKV	zone	Vmax	Vmin
mpc.bus = [
	10000	 1	 0.0	 0.0	 0.0	 0.0	 0	    1.00000	    0.00000	 400.0	 0	    1.05000	    0.95000;
	10001	 1	 0.0	 0.0	 0.0	 0.0	 0	    1.00000	    0.00000	 400.0	 0	    1.05000	    0.95000;
	10002	 1	 0.0	 0.0	 0.0	 0.0	 0	    1.03000	    0.00000	 220.0	 0	    1.11000	    0.95000;
	10003	 1	 0.0	 0.0	 0.0	 0.0	 0	    1.00000	    0.00000	 400.0	 0	    1.05000	    0.95000;
	10004	 1	 0.0	 0.0	 0.0	 0.0	 0	    1.00000	    0.00000	 400.0	 0	    1.05000	    0.95000;
	10005	 1	 0.0	 0.0	 0.0	 0.0	 0	    1.00000	    0.00000	 400.0	 0	    1.05000	    0.95000;
	10006	 1	 0.0	 0.0	 0.0	 0.0	 0	    1.00000	    0.00000	 400.0	 0	    1.05000	    0.95000;
	10007	 1	 0.0	 0.0	 0.0	 0.0	 0	    1.03000	    0.00000	 220.0	 0	    1.11000	    0.95000;
	10008	 1	 0.0	 0.0	 0.0	 0.0	 0	    1.03000	    0.00000	 220.0	 0	    1.11000	    0.95000;
	10009	 1	 0.0	 0.0	 0.0	 0.0	 0	    1.00000	    0.00000	 400.0	 0	    1.05000	    0.95000;
	10010	 1	 0.0	 0.0	 0.0	 0.0	 0	    1.00000	    0.00000	 400.0	 0	    1.05000	    0.95000;
	10011	 1	 0.0	 0.0	 0.0	 0.0	 0	    1.00000	    0.00000	 400.0	 0	    1.05000	    0.95000;
	10012	 1	 0.0	 0.0	 0.0	 0.0	 0	    1.00000	    0.00000	 400.0	 0	    1.05000	    0.95000;
	10013	 1	 0.0	 0.0	 0.0	 0.0	 0	    1.00000	    0.00000	 400.0	 0	    1.05000	    0.95000;
	10014	 1	 0.0	 0.0	 0.0	 0.0	 0	    1.00000	    0.00000	 400.0	 0	    1.05000	    0.95000;
	10015	 1	 0.0	 0.0	 0.0	 0.0	 0	    1.00000	    0.00000	 400.0	 0	    1.05000	    0.95000;
	10016	 1	 0.0	 0.0	 0.0	 0.0	 0	    1.00000	    0.00000	 400.0	 0	    1.05000	    0.95000;
	10017	 1	 0.0	 0.0	 0.0	 0.0	 0	    1.00000	    0.00000	 400.0	 0	    1.05000	    0.95000;
	10018	 1	 0.0	 0.0	 0.0	 0.0	 0	    1.00000	    0.00000	 400.0	 0	    1.05000	    0.95000;
	10019	 1	 0.0	 0.0	 0.0	 0.0	 0	    1.00000	    0.00000	 400.0	 0	    1.05000	    0.95000;
	10020	 1	 0.0	 0.0	 0.0	 0.0	 0	    1.00000	    0.00000	 400.0	 0	    1.05000	    0.95000;
	10021	 1	 0.0	 0.0	 0.0	 0.0	 0	    1.03000	    0.00000	 220.0	 0	    1.11000	    0.95000;
	10022	 1	 0.0	 0.0	 0.0	 0.0	 0	    1.03000	    0.00000	 220.0	 0	    1.11000	    0.95000;
	10023	 1	 0.0	 0.0	 0.0	 0.0	 0	    1.00000	    0.00000	 400.0	 0	    1.05000	    0.95000;
	10024	 1	 0.0	 0.0	 0.0	 0.0	 0	    1.00000	    0.00000	 400.0	 0	    1.05000	    0.95000;
	10025	 1	 0.0	 0.0	 0.0	 0.0	 0	    1.00000	    0.00000	 400.0	 0	    1.05000	    0.95000;
	10026	 1	 0.0	 0.0	 0.0	 0.0	 0	    1.00000	    0.00000	 400.0	 0	    1.05000	    0.95000;
	10027	 1	 0.0	 0.0	 0.0	 0.0	 0	    1.00000	    0.00000	 400.0	 0	    1.05000	    0.95000;
	10028	 1	 0.0	 0.0	 0.0	 0.0	 0	    1.00000	    0.00000	 400.0	 0	    1.05000	    0.95000;
	10029	 1	 0.0	 0.0	 0.0	 0.0	 0	    1.00000	    0.00000	 400.0	 0	    1.05000	    0.95000;
	10030	 1	 0.0	 0.0	 0.0	 0.0	 0	    1.00000	    0.00000	 400.0	 0	    1.05000	    0.95000;
	10031	 1	 0.0	 0.0	 0.0	 0.0	 0	    1.03000	    0.00000	 220.0	 0	    1.11000	    0.95000;
	10032	 1	 0.0	 0.0	 0.0	 0.0	 0	    1.00000	    0.00000	 400.0	 0	    1.05000	    0.95000;
	10033	 1	 0.0	 0.0	 0.0	 0.0	 0	    1.00000	    0.00000	 400.0	 0	    1.05000	    0.95000;
	10034	 1	 0.0	 0.0	 0.0	 0.0	 0	    1.00000	    0.00000	 400.0	 0	    1.05000	    0.95000;
	10035	 1	 0.0	 0.0	 0.0	 0.0	 0	    1.03000	    0.00000	 220.0	 0	    1.11000	    0.95000;
	10036	 1	 0.0	 0.0	 0.0	 0.0	 0	    1.03000	    0.00000	 220.0	 0	    1.11000	    0.95000;
	10037	 1	 0.0	 0.0	 0.0	 0.0	 0	    1.00000	    0.00000	 400.0	 0	    1.05000	    0.95000;
	10038	 1	 0.0	 0.0	 0.0	 0.0	 0	    1.00000	    0.00000	 400.0	 0	    1.05000	    0.95000;
	10039	 1	 0.0	 0.0	 0.0	 0.0	 0	    1.00000	    0.00000	 400.0	 0	    1.05000	    0.95000;
	10040	 1	 0.0	 0.0	 0.0	 0.0	 0	    1.00000	    0.00000	 400.0	 0	    1.05000	    0.95000;
	10041	 1	 0.0	 0.0	 0.0	 0.0	 0	    1.00000	    0.00000	 400.0	 0	    1.05000	    0.95000;
	10042	 1	 0.0	 0.0	 0.0	 0.0	 0	    1.00000	    0.00000	 400.0	 0	    1.05000	    0.95000;
	10043	 1	 0.0	 0.0	 0.0	 0.0	 0	    1.03000	    0.00000	 220.0	 0	    1.11000	    0.95000;
	10044	 1	 0.0	 0.0	 0.0	 0.0	 0	    1.03000	    0.00000	 220.0	 0	    1.11000	    0.95000;
	10045	 1	 0.0	 0.0	 0.0	 0.0	 0	    1.03000	    0.00000	 220.0	 0	    1.11000	    0.95000;
	10046	 1	 0.0	 0.0	 0.0	 0.0	 0	    1.03000	    0.00000	 220.0	 0	    1.11000	    0.95000;
	10047	 1	 0.0	 0.0	 0.0	 0.0	 0	    1.00000	    0.00000	 400.0	 0	    1.05000	    0.95000;
	10048	 1	 0.0	 0.0	 0.0	 0.0	 0	    1.00000	    0.00000	 400.0	 0	    1.05000	    0.95000;
	10049	 1	 0.0	 0.0	 0.0	 0.0	 0	    1.00000	    0.00000	 400.0	 0	    1.05000	    0.95000;
	10050	 1	 0.0	 0.0	 0.0	 0.0	 0	    1.00000	    0.00000	 400.0	 0	    1.05000	    0.95000;
	10051	 1	 0.0	 0.0	 0.0	 0.0	 0	    1.03000	    0.00000	 220.0	 0	    1.11000	    0.95000;
	10052	 1	 0.0	 0.0	 0.0	 0.0	 0	    1.00000	    0.00000	 400.0	 0	    1.05000	    0.95000;
	10053	 1	 0.0	 0.0	 0.0	 0.0	 0	    1.03000	    0.00000	 220.0	 0	    1.11000	    0.95000;
	10054	 1	 0.0	 0.0	 0.0	 0.0	 0	    1.03000	    0.00000	 220.0	 0	    1.11000	    0.95000;
	10055	 1	 0.0	 0.0	 0.0	 0.0	 0	    1.03000	    0.00000	 220.0	 0	    1.11000	    0.95000;
	10056	 1	 0.0	 0.0	 0.0	 0.0	 0	    1.00000	    0.00000	 400.0	 0	    1.05000	    0.95000;
	10057	 1	 0.0	 0.0	 0.0	 0.0	 0	    1.00000	    0.00000	 400.0	 0	    1.05000	    0.95000;
	10058	 1	 0.0	 0.0	 0.0	 0.0	 0	    1.03000	    0.00000	 220.0	 0	    1.11000	    0.95000;
	10059	 1	 0.0	 0.0	 0.0	 0.0	 0	    1.00000	    0.00000	 400.0	 0	    1.05000	    0.95000;
	10060	 1	 0.0	 0.0	 0.0	 0.0	 0	    1.00000	    0.00000	 400.0	 0	    1.05000	    0.95000;
	10061	 1	 0.0	 0.0	 0.0	 0.0	 0	    1.00000	    0.00000	 400.0	 0	    1.05000	    0.95000;
	10062	 1	 0.0	 0.0	 0.0	 0.0	 0	    1.00000	    0.00000	 400.0	 0	    1.05000	    0.95000;
	10063	 1	 0.0	 0.0	 0.0	 0.0	 0	    1.00000	    0.00000	 400.0	 0	    1.05000	    0.95000;
	10064	 1	 0.0	 0.0	 0.0	 0.0	 0	    1.03000	    0.00000	 220.0	 0	    1.11000	    0.95000;
	10065	 1	 0.0	 0.0	 0.0	 0.0	 0	    1.00000	    0.00000	 400.0	 0	    1.05000	    0.95000;
	10066	 1	 0.0	 0.0	 0.0	 0.0	 0	    1.00000	    0.00000	 400.0	 0	    1.05000	    0.95000;
	10067	 1	 0.0	 0.0	 0.0	 0.0	 0	    1.03000	    0.00000	 220.0	 0	    1.11000	    0.95000;
	10068	 1	 0.0	 0.0	 0.0	 0.0	 0	    1.00000	    0.00000	 400.0	 0	    1.05000	    0.95000;
	10069	 1	 0.0	 0.0	 0.0	 0.0	 0	    1.03000	    0.00000	 220.0	 0	    1.11000	    0.95000;
	10070	 1	 0.0	 0.0	 0.0	 0.0	 0	    1.00000	    0.00000	 400.0	 0	    1.05000	    0.95000;
	10071	 2	 18.45	 8.00	 0.0	 0.0	 0	    1.03000	    0.00000	 220.0	 0	    1.11000	    0.95000;
	10072	 1	 0.0	 0.0	 0.0	 0.0	 0	    1.03000	    0.00000	 220.0	 0	    1.11000	    0.95000;
	10073	 1	 0.0	 0.0	 0.0	 0.0	 1	    1.03000	    0.00000	 220.0	 0	    1.11000	    0.95000;
	10074	 1	 0.0	 0.0	 0.0	 0.0	 0	    1.03000	    0.00000	 220.0	 0	    1.11000	    0.95000;
	10075	 1	 0.0	 0.0	 0.0	 0.0	 0	    1.03000	    0.00000	 220.0	 0	    1.11000	    0.95000;
	10076	 1	 0.0	 0.0	 0.0	 0.0	 0	    1.00000	    0.00000	 400.0	 0	    1.05000	    0.95000;
	10077	 1	 0.0	 0.0	 0.0	 0.0	 0	    1.00000	    0.00000	 400.0	 0	    1.05000	    0.95000;
	10078	 1	 305.50	 -14.00	 0.0	 0.0	 0	    1.00000	    0.00000	 400.0	 0	    1.05000	    0.95000;
	10079	 2	 -1529.60	 4542.90	 0.0	 0.0	 0	    1.00000	    0.00000	 400.0	 0	    1.05000	    0.95000;
	10080	 2	 -159.10	 -181.00	 0.0	 0.0	 0	    1.00000	    0.00000	 400.0	 0	    1.05000	    0.95000;
	10081	 1	 -1078.30	 -374.10	 0.0	 0.0	 0	    1.00000	    0.00000	 400.0	 0	    1.05000	    0.95000;
	10082	 1	 1087.71	 310.20	 0.0	 0.0	 0	    1.00000	    0.00000	 400.0	 0	    1.05000	    0.95000;
	10083	 1	 111.86	 26.00	 0.0	 0.0	 0	    1.00000	    0.00000	 400.0	 0	    1.05000	    0.95000;
	10084	 1	 0.69	 160.00	 0.0	 0.0	 0	    1.00000	    0.00000	 400.0	 0	    1.05000	    0.95000;
	10085	 1	 186.36	 183.60	 0.0	 0.0	 0	    1.00000	    0.00000	 400.0	 0	    1.05000	    0.95000;
	10086	 1	 332.82	 221.60	 0.0	 0.0	 0	    1.00000	    0.00000	 400.0	 0	    1.05000	    0.95000;
	10087	 1	 0.0	 0.0	 0.0	 0.0	 0	    1.00000	    0.00000	 400.0	 0	    1.05000	    0.95000;
	10088	 1	 0.0	 0.0	 0.0	 0.0	 0	    1.03000	    0.00000	 220.0	 0	    1.11000	    0.95000;
	10089	 1	 0.0	 0.0	 0.0	 0.0	 0	    1.03000	    0.00000	 220.0	 0	    1.11000	    0.95000;
	10090	 2	 316.44	 279.60	 0.0	 0.0	 0	    1.00000	    0.00000	 400.0	 0	    1.05000	    0.95000;
	10091	 1	 108.63	 111.80	 0.0	 0.0	 0	    1.00000	    0.00000	 400.0	 0	    1.05000	    0.95000;
	10092	 1	 0.0	 0.0	 0.0	 0.0	 0	    1.03000	    0.00000	 220.0	 0	    1.11000	    0.95000;
	10093	 1	 0.0	 0.0	 0.0	 0.0	 0	    1.03000	    0.00000	 220.0	 0	    1.11000	    0.95000;
	10094	 2	 0.0	 0.0	 0.0	 0.0	 0	    1.00000	    0.00000	 400.0	 0	    1.05000	    0.95000;
	10095	 2	 4.40	 -2590.10	 0.0	 0.0	 0	    1.00000	    0.00000	 400.0	 0	    1.05000	    0.95000;
	10096	 1	 562.77	 79.10	 0.0	 0.0	 0	    1.00000	    0.00000	 400.0	 0	    1.05000	    0.95000;
	10097	 1	 693.08	 147.90	 0.0	 0.0	 0	    1.00000	    0.00000	 400.0	 0	    1.05000	    0.95000;
	10098	 1	 607.74	 265.10	 0.0	 0.0	 0	    1.00000	    0.00000	 400.0	 0	    1.05000	    0.95000;
	10099	 1	 0.0	 0.0	 0.0	 0.0	 0	    1.00000	    0.00000	 400.0	 0	    1.05000	    0.95000;
	10100	 2	 0.0	 0.0	 0.0	 0.0	 0	    1.00000	    0.00000	 400.0	 0	    1.05000	    0.95000;
	10101	 1	 0.0	 0.0	 0.0	 0.0	 0	    1.03000	    0.00000	 220.0	 0	    1.11000	    0.95000;
	10102	 1	 138.39	 25.00	 0.0	 0.0	 0	    1.03000	    0.00000	 220.0	 0	    1.11000	    0.95000;
	10103	 1	 0.0	 0.0	 0.0	 0.0	 0	    1.00000	    0.00000	 400.0	 0	    1.05000	    0.95000;
	10104	 2	 230.87	 48.70	 0.0	 0.0	 0	    1.00000	    0.00000	 400.0	 0	    1.05000	    0.95000;
	10105	 1	 0.0	 0.0	 0.0	 0.0	 0	    1.03000	    0.00000	 220.0	 0	    1.11000	    0.95000;
	10106	 1	 0.0	 0.0	 0.0	 0.0	 0	    1.00000	    0.00000	 400.0	 0	    1.05000	    0.95000;
	10107	 1	 0.0	 0.0	 0.0	 0.0	 0	    1.00000	    0.00000	 400.0	 0	    1.05000	    0.95000;
	10108	 1	 0.0	 0.0	 0.0	 0.0	 0	    1.00000	    0.00000	 400.0	 0	    1.05000	    0.95000;
	10109	 1	 0.0	 0.0	 0.0	 0.0	 0	    1.00000	    0.00000	 400.0	 0	    1.05000	    0.95000;
	10110	 1	 0.0	 0.0	 0.0	 0.0	 0	    1.00000	    0.00000	 400.0	 0	    1.05000	    0.95000;
	10111	 1	 0.0	 0.0	 0.0	 0.0	 0	    1.00000	    0.00000	 400.0	 0	    1.05000	    0.95000;
	10112	 1	 0.0	 0.0	 0.0	 0.0	 0	    1.03000	    0.00000	 220.0	 0	    1.11000	    0.95000;
	10113	 1	 0.0	 0.0	 0.0	 0.0	 0	    1.00000	    0.00000	 400.0	 0	    1.05000	    0.95000;
	10114	 1	 0.0	 0.0	 0.0	 0.0	 0	    1.03000	    0.00000	 220.0	 0	    1.11000	    0.95000;
	10115	 2	 0.0	 0.0	 0.0	 0.0	 0	    1.00000	    0.00000	 400.0	 0	    1.05000	    0.95000;
	10116	 2	 0.0	 0.0	 0.0	 0.0	 0	    1.00000	    0.00000	 400.0	 0	    1.05000	    0.95000;
	10117	 1	 0.0	 0.0	 0.0	 0.0	 0	    1.00000	    0.00000	 400.0	 0	    1.05000	    0.95000;
	10118	 2	 0.0	 0.0	 0.0	 0.0	 0	    1.00000	    0.00000	 400.0	 0	    1.05000	    0.95000;
	10119	 1	 0.0	 0.0	 0.0	 0.0	 0	    1.00000	    0.00000	 400.0	 0	    1.05000	    0.95000;
	10120	 1	 0.0	 0.0	 0.0	 0.0	 0	    1.00000	    0.00000	 400.0	 0	    1.05000	    0.95000;
	10121	 1	 92.26	 20.00	 0.0	 0.0	 0	    1.03000	    0.00000	 220.0	 0	    1.11000	    0.95000;
	10122	 1	 0.0	 0.0	 0.0	 0.0	 0	    1.03000	    0.00000	 220.0	 0	    1.11000	    0.95000;
	10123	 1	 0.0	 0.0	 0.0	 0.0	 0	    1.00000	    0.00000	 400.0	 0	    1.05000	    0.95000;
	10124	 1	 0.0	 0.0	 0.0	 0.0	 0	    1.00000	    0.00000	 400.0	 0	    1.05000	    0.95000;
	10125	 1	 0.0	 0.0	 0.0	 0.0	 0	    1.00000	    0.00000	 400.0	 0	    1.05000	    0.95000;
	10126	 2	 0.0	 0.0	 0.0	 0.0	 0	    1.00000	    0.00000	 400.0	 0	    1.05000	    0.95000;
	10127	 1	 0.0	 0.0	 0.0	 0.0	 0	    1.03000	    0.00000	 220.0	 0	    1.11000	    0.95000;
	10128	 1	 0.0	 0.0	 0.0	 0.0	 0	    1.03000	    0.00000	 220.0	 0	    1.11000	    0.95000;
	10129	 2	 0.23	 100.00	 0.0	 0.0	 0	    1.00000	    0.00000	 400.0	 0	    1.05000	    0.95000;
	10130	 1	 0.0	 0.0	 0.0	 0.0	 0	    1.00000	    0.00000	 400.0	 0	    1.05000	    0.95000;
	10131	 1	 0.0	 0.0	 0.0	 0.0	 0	    1.00000	    0.00000	 400.0	 0	    1.05000	    0.95000;
	10132	 2	 0.0	 0.0	 0.0	 0.0	 0	    1.00000	    0.00000	 400.0	 0	    1.05000	    0.95000;
	10133	 1	 0.0	 0.0	 0.0	 0.0	 0	    1.00000	    0.00000	 400.0	 0	    1.05000	    0.95000;
	10134	 1	 0.0	 0.0	 0.0	 0.0	 0	    1.00000	    0.00000	 400.0	 0	    1.05000	    0.95000;
	10135	 1	 0.0	 0.0	 0.0	 0.0	 0	    1.03000	    0.00000	 220.0	 0	    1.11000	    0.95000;
	10136	 1	 0.0	 0.0	 0.0	 0.0	 0	    1.03000	    0.00000	 220.0	 0	    1.11000	    0.95000;
	10137	 1	 0.0	 0.0	 0.0	 0.0	 0	    1.03000	    0.00000	 220.0	 0	    1.11000	    0.95000;
	10138	 1	 0.0	 0.0	 0.0	 0.0	 0	    1.00000	    0.00000	 400.0	 0	    1.05000	    0.95000;
	10139	 2	 0.0	 0.0	 0.0	 0.0	 0	    1.00000	    0.00000	 400.0	 0	    1.05000	    0.95000;
	10140	 2	 0.0	 0.0	 0.0	 0.0	 0	    1.00000	    0.00000	 400.0	 0	    1.05000	    0.95000;
	10141	 2	 0.0	 0.0	 0.0	 0.0	 0	    1.00000	    0.00000	 400.0	 0	    1.05000	    0.95000;
	10142	 1	 0.0	 0.0	 0.0	 0.0	 0	    1.00000	    0.00000	 400.0	 0	    1.05000	    0.95000;
	10143	 1	 0.0	 0.0	 0.0	 0.0	 0	    1.00000	    0.00000	 400.0	 0	    1.05000	    0.95000;
	10144	 1	 0.0	 0.0	 0.0	 0.0	 0	    1.00000	    0.00000	 400.0	 0	    1.05000	    0.95000;
	10145	 1	 0.0	 0.0	 0.0	 0.0	 0	    1.00000	    0.00000	 400.0	 0	    1.05000	    0.95000;
	10146	 2	 0.0	 0.0	 0.0	 0.0	 0	    1.03000	    0.00000	 220.0	 0	    1.11000	    0.95000;
	10147	 1	 0.0	 0.0	 0.0	 0.0	 0	    1.00000	    0.00000	 400.0	 0	    1.05000	    0.95000;
	10148	 1	 0.0	 0.0	 0.0	 0.0	 0	    1.03000	    0.00000	 220.0	 0	    1.11000	    0.95000;
	10149	 1	 0.0	 0.0	 0.0	 0.0	 0	    1.03000	    0.00000	 220.0	 0	    1.11000	    0.95000;
	10150	 2	 0.0	 0.0	 0.0	 0.0	 0	    1.00000	    0.00000	 400.0	 0	    1.05000	    0.95000;
	10151	 1	 0.0	 0.0	 0.0	 0.0	 0	    1.00000	    0.00000	 400.0	 0	    1.05000	    0.95000;
	10152	 1	 0.0	 0.0	 0.0	 0.0	 0	    1.00000	    0.00000	 400.0	 0	    1.05000	    0.95000;
	10153	 1	 0.0	 0.0	 0.0	 0.0	 0	    1.00000	    0.00000	 400.0	 0	    1.05000	    0.95000;
	10154	 1	 92.26	 20.00	 0.0	 0.0	 0	    1.03000	    0.00000	 220.0	 0	    1.11000	    0.95000;
	10155	 1	 0.0	 0.0	 0.0	 0.0	 0	    1.03000	    0.00000	 220.0	 0	    1.11000	    0.95000;
	10156	 1	 0.0	 0.0	 0.0	 0.0	 0	    1.00000	    0.00000	 400.0	 0	    1.05000	    0.95000;
	10157	 1	 0.0	 0.0	 0.0	 0.0	 0	    1.03000	    0.00000	 220.0	 0	    1.11000	    0.95000;
	10158	 1	 0.0	 0.0	 0.0	 0.0	 0	    1.00000	    0.00000	 400.0	 0	    1.05000	    0.95000;
	10159	 1	 0.0	 0.0	 0.0	 0.0	 0	    1.03000	    0.00000	 220.0	 0	    1.11000	    0.95000;
	10160	 1	 0.0	 0.0	 0.0	 0.0	 0	    1.03000	    0.00000	 220.0	 0	    1.11000	    0.95000;
	10161	 1	 0.0	 0.0	 0.0	 0.0	 0	    1.00000	    0.00000	 400.0	 0	    1.05000	    0.95000;
	10162	 1	 0.0	 0.0	 0.0	 0.0	 0	    1.03000	    0.00000	 220.0	 0	    1.11000	    0.95000;
	10163	 1	 0.0	 0.0	 0.0	 0.0	 0	    1.03000	    0.00000	 220.0	 0	    1.11000	    0.95000;
	10164	 1	 0.0	 0.0	 0.0	 0.0	 0	    1.00000	    0.00000	 400.0	 0	    1.05000	    0.95000;
	10165	 1	 0.0	 0.0	 0.0	 0.0	 0	    1.00000	    0.00000	 400.0	 0	    1.05000	    0.95000;
	10166	 1	 0.0	 0.0	 0.0	 0.0	 0	    1.03000	    0.00000	 220.0	 0	    1.11000	    0.95000;
	10167	 1	 0.0	 0.0	 0.0	 0.0	 0	    1.00000	    0.00000	 400.0	 0	    1.05000	    0.95000;
	10168	 1	 0.0	 0.0	 0.0	 0.0	 0	    1.00000	    0.00000	 400.0	 0	    1.05000	    0.95000;
	10169	 1	 0.0	 0.0	 0.0	 0.0	 0	    1.00000	    0.00000	 400.0	 0	    1.05000	    0.95000;
	10170	 1	 0.0	 0.0	 0.0	 0.0	 0	    1.00000	    0.00000	 400.0	 0	    1.05000	    0.95000;
	10171	 2	 -104.80	 -159.00	 0.0	 0.0	 0	    1.00000	    0.00000	 400.0	 0	    1.05000	    0.95000;
	10172	 1	 247.40	 -57.50	 0.0	 0.0	 0	    1.00000	    0.00000	 400.0	 0	    1.05000	    0.95000;
	10173	 1	 247.40	 -57.50	 0.0	 0.0	 0	    1.00000	    0.00000	 400.0	 0	    1.05000	    0.95000;
	10174	 1	 428.42	 403.50	 0.0	 0.0	 0	    1.00000	    0.00000	 400.0	 0	    1.05000	    0.95000;
	10176	 2	 -249.90	 162.60	 0.0	 0.0	 0	    1.00000	    0.00000	 400.0	 0	    1.05000	    0.95000;
	10177	 2	 -249.90	 162.60	 0.0	 0.0	 0	    1.00000	    0.00000	 400.0	 0	    1.05000	    0.95000;
	10178	 1	 60.54	 207.20	 0.0	 0.0	 0	    1.00000	    0.00000	 400.0	 0	    1.05000	    0.95000;
	10179	 1	 437.65	 54.60	 0.0	 0.0	 0	    1.00000	    0.00000	 400.0	 0	    1.05000	    0.95000;
	10180	 1	 73.60	 -95.60	 0.0	 0.0	 0	    1.03000	    0.00000	 220.0	 0	    1.11000	    0.95000;
	10181	 1	 73.60	 -95.60	 0.0	 0.0	 0	    1.03000	    0.00000	 220.0	 0	    1.11000	    0.95000;
	10182	 1	 107.20	 -44.40	 0.0	 0.0	 0	    1.00000	    0.00000	 400.0	 0	    1.05000	    0.95000;
	10183	 1	 99.18	 8.00	 0.0	 0.0	 0	    1.00000	    0.00000	 400.0	 0	    1.05000	    0.95000;
	10184	 1	 80.73	 49.00	 0.0	 0.0	 0	    1.03000	    0.00000	 220.0	 0	    1.11000	    0.95000;
	10185	 1	 0.0	 0.0	 0.0	 0.0	 0	    1.00000	    0.00000	 400.0	 0	    1.05000	    0.95000;
	10186	 2	 0.0	 0.0	 0.0	 0.0	 0	    1.03000	    0.00000	 220.0	 0	    1.11000	    0.95000;
	10187	 2	 0.0	 0.0	 0.0	 0.0	 0	    1.03000	    0.00000	 220.0	 0	    1.11000	    0.95000;
	10188	 2	 0.0	 0.0	 0.0	 0.0	 0	    1.00000	    0.00000	 400.0	 0	    1.05000	    0.95000;
	10189	 2	 10.20	 0.00	 0.0	 0.0	 0	    1.00000	    0.00000	 400.0	 0	    1.05000	    0.95000;
	10190	 2	 0.0	 0.0	 0.0	 0.0	 0	    1.00000	    0.00000	 400.0	 0	    1.05000	    0.95000;
	10191	 2	 0.0	 0.0	 0.0	 0.0	 0	    1.00000	    0.00000	 400.0	 0	    1.05000	    0.95000;
	10192	 2	 0.0	 0.0	 0.0	 0.0	 0	    1.03000	    0.00000	 220.0	 0	    1.11000	    0.95000;
	10193	 1	 0.0	 0.0	 0.0	 0.0	 0	    1.03000	    0.00000	 220.0	 0	    1.11000	    0.95000;
	10194	 2	 0.0	 0.0	 0.0	 0.0	 0	    1.00000	    0.00000	 400.0	 0	    1.05000	    0.95000;
	10195	 1	 0.0	 0.0	 0.0	 0.0	 0	    1.00000	    0.00000	 400.0	 0	    1.05000	    0.95000;
	10196	 2	 0.0	 0.0	 0.0	 0.0	 0	    1.00000	    0.00000	 400.0	 0	    1.05000	    0.95000;
	10197	 1	 340.20	 51.90	 0.0	 0.0	 0	    1.00000	    0.00000	 400.0	 0	    1.05000	    0.95000;
	10198	 1	 0.0	 0.0	 0.0	 0.0	 0	    1.00000	    0.00000	 400.0	 0	    1.05000	    0.95000;
	10199	 1	 355.19	 40.00	 0.0	 0.0	 0	    1.03000	    0.00000	 220.0	 0	    1.11000	    0.95000;
	10200	 1	 0.0	 0.0	 0.0	 0.0	 0	    1.03000	    0.00000	 220.0	 0	    1.11000	    0.95000;
	10201	 1	 0.0	 0.0	 0.0	 0.0	 0	    1.00000	    0.00000	 400.0	 0	    1.05000	    0.95000;
	10202	 1	 118.78	 28.00	 0.0	 0.0	 0	    1.03000	    0.00000	 220.0	 0	    1.11000	    0.95000;
	10203	 1	 0.0	 0.0	 0.0	 0.0	 0	    1.03000	    0.00000	 220.0	 0	    1.11000	    0.95000;
	10204	 1	 196.05	 33.00	 0.0	 0.0	 0	    1.00000	    0.00000	 400.0	 0	    1.05000	    0.95000;
	10205	 1	 177.60	 6.00	 0.0	 0.0	 0	    1.00000	    0.00000	 400.0	 0	    1.05000	    0.95000;
	10206	 1	 172.98	 15.00	 0.0	 0.0	 0	    1.03000	    0.00000	 220.0	 0	    1.11000	    0.95000;
	10207	 1	 130.31	 15.00	 0.0	 0.0	 0	    1.00000	    0.00000	 400.0	 0	    1.05000	    0.95000;
	10208	 1	 74.96	 11.00	 0.0	 0.0	 0	    1.00000	    0.00000	 400.0	 0	    1.05000	    0.95000;
	10209	 1	 69.19	 10.00	 0.0	 0.0	 0	    1.03000	    0.00000	 220.0	 0	    1.11000	    0.95000;
	10210	 1	 235.26	 16.90	 0.0	 0.0	 0	    1.00000	    0.00000	 400.0	 0	    1.05000	    0.95000;
	10211	 1	 163.76	 10.90	 0.0	 0.0	 0	    1.03000	    0.00000	 220.0	 0	    1.11000	    0.95000;
	10212	 1	 95.72	 19.00	 0.0	 0.0	 0	    1.03000	    0.00000	 220.0	 0	    1.11000	    0.95000;
	10213	 1	 217.96	 35.00	 0.0	 0.0	 0	    1.00000	    0.00000	 400.0	 0	    1.05000	    0.95000;
	10214	 1	 19.60	 6.00	 0.0	 0.0	 0	    1.00000	    0.00000	 400.0	 0	    1.05000	    0.95000;
	10215	 1	 0.0	 0.0	 0.0	 0.0	 0	    1.00000	    0.00000	 400.0	 0	    1.05000	    0.95000;
	10216	 1	 2.00	 -6.00	 0.0	 0.0	 0	    1.03000	    0.00000	 220.0	 0	    1.11000	    0.95000;
	10217	 1	 88.00	 -4.00	 0.0	 0.0	 0	    1.00000	    0.00000	 400.0	 0	    1.05000	    0.95000;
	10218	 1	 0.0	 0.0	 0.0	 0.0	 0	    1.00000	    0.00000	 400.0	 0	    1.05000	    0.95000;
	10219	 1	 0.0	 0.0	 0.0	 0.0	 0	    1.00000	    0.00000	 400.0	 0	    1.05000	    0.95000;
	10220	 1	 0.0	 0.0	 0.0	 0.0	 0	    1.00000	    0.00000	 400.0	 0	    1.05000	    0.95000;
	10221	 1	 0.0	 0.0	 0.0	 0.0	 0	    1.00000	    0.00000	 400.0	 0	    1.05000	    0.95000;
	10222	 1	 57.66	 20.00	 0.0	 0.0	 0	    1.03000	    0.00000	 220.0	 0	    1.11000	    0.95000;
	10223	 2	 -338.10	 155.60	 0.0	 0.0	 0	    1.00000	    0.00000	 400.0	 0	    1.05000	    0.95000;
	10225	 2	 225.68	 126.60	 0.0	 0.0	 0	    1.03500	    0.00000	 110.0	 0	    1.12000	    0.95000;
	10226	 2	 163.64	 93.10	 0.0	 0.0	 0	    1.03500	    0.00000	 110.0	 0	    1.12000	    0.95000;
	10227	 2	 270.43	 57.50	 0.0	 0.0	 0	    1.03500	    0.00000	 110.0	 0	    1.12000	    0.95000;
	10228	 2	 447.68	 98.20	 0.0	 0.0	 0	    1.03500	    0.00000	 110.0	 0	    1.12000	    0.95000;
	10229	 2	 97.68	 29.10	 0.0	 0.0	 0	    1.03500	    0.00000	 110.0	 0	    1.12000	    0.95000;
	10230	 2	 0.0	 0.0	 0.0	 0.0	 0	    1.03500	    0.00000	 110.0	 0	    1.12000	    0.95000;
	10231	 1	 224.19	 43.40	 0.0	 0.0	 0	    1.03500	    0.00000	 110.0	 0	    1.12000	    0.95000;
	10232	 2	 225.68	 43.30	 0.0	 0.0	 0	    1.03500	    0.00000	 110.0	 0	    1.12000	    0.95000;
	10233	 2	 592.41	 92.50	 0.0	 0.0	 0	    1.03500	    0.00000	 110.0	 0	    1.12000	    0.95000;
	10234	 2	 525.17	 108.80	 0.0	 0.0	 0	    1.03500	    0.00000	 110.0	 0	    1.12000	    0.95000;
	10235	 2	 71.27	 19.60	 0.0	 0.0	 0	    1.03500	    0.00000	 110.0	 0	    1.12000	    0.95000;
	10236	 2	 300.76	 80.80	 0.0	 0.0	 0	    1.03500	    0.00000	 110.0	 0	    1.12000	    0.95000;
	10237	 2	 229.95	 65.60	 0.0	 0.0	 0	    1.03500	    0.00000	 110.0	 0	    1.12000	    0.95000;
	10238	 2	 455.52	 96.40	 0.0	 0.0	 0	    1.03500	    0.00000	 110.0	 0	    1.12000	    0.95000;
	10239	 2	 397.17	 71.00	 0.0	 0.0	 0	    1.03500	    0.00000	 110.0	 0	    1.12000	    0.95000;
	10240	 2	 0.0	 0.0	 0.0	 0.0	 0	    1.03500	    0.00000	 110.0	 0	    1.12000	    0.95000;
	10241	 1	 0.0	 0.0	 0.0	 0.0	 0	    1.03500	    0.00000	 110.0	 0	    1.12000	    0.95000;
	10242	 1	 0.0	 0.0	 0.0	 0.0	 0	    1.03500	    0.00000	 110.0	 0	    1.12000	    0.95000;
	10243	 1	 0.0	 0.0	 0.0	 0.0	 0	    1.03500	    0.00000	 110.0	 0	    1.12000	    0.95000;
	10244	 1	 0.0	 0.0	 0.0	 0.0	 0	    1.03500	    0.00000	 110.0	 0	    1.12000	    0.95000;
	10245	 1	 213.81	 59.70	 0.0	 0.0	 0	    1.03500	    0.00000	 110.0	 0	    1.12000	    0.95000;
	10246	 2	 4.61	 2.00	 0.0	 0.0	 0	    1.03500	    0.00000	 14.0	 0	    1.12000	    0.95000;
	10247	 2	 16.15	 10.00	 0.0	 0.0	 0	    1.03500	    0.00000	 14.0	 0	    1.12000	    0.95000;
	10248	 2	 16.15	 10.00	 0.0	 0.0	 0	    1.03500	    0.00000	 14.0	 0	    1.12000	    0.95000;
	10249	 2	 5.77	 3.00	 0.0	 0.0	 0	    1.03500	    0.00000	 23.0	 0	    1.12000	    0.95000;
	10250	 2	 32.29	 17.00	 0.0	 0.0	 0	    1.03500	    0.00000	 16.0	 0	    1.12000	    0.95000;
	10251	 2	 32.29	 17.00	 0.0	 0.0	 0	    1.03500	    0.00000	 16.0	 0	    1.12000	    0.95000;
	10252	 2	 32.29	 17.00	 0.0	 0.0	 0	    1.03500	    0.00000	 16.0	 0	    1.12000	    0.95000;
	10253	 2	 30.79	 5.90	 0.0	 0.0	 0	    1.03500	    0.00000	 15.0	 0	    1.12000	    0.95000;
	10254	 2	 26.52	 10.00	 0.0	 0.0	 0	    1.03500	    0.00000	 20.0	 0	    1.12000	    0.95000;
	10255	 2	 4.61	 2.00	 0.0	 0.0	 0	    1.03500	    0.00000	 16.0	 0	    1.12000	    0.95000;
	10256	 2	 34.60	 10.00	 0.0	 0.0	 0	    1.03500	    0.00000	 16.0	 0	    1.12000	    0.95000;
	10257	 2	 17.30	 5.00	 0.0	 0.0	 0	    1.03500	    0.00000	 16.0	 0	    1.12000	    0.95000;
	10258	 2	 23.06	 8.00	 0.0	 0.0	 0	    1.03500	    0.00000	 16.0	 0	    1.12000	    0.95000;
	10259	 2	 34.60	 14.00	 0.0	 0.0	 0	    1.03500	    0.00000	 17.0	 0	    1.12000	    0.95000;
	10260	 2	 51.89	 21.00	 0.0	 0.0	 0	    1.03500	    0.00000	 17.0	 0	    1.12000	    0.95000;
	10261	 2	 92.26	 40.00	 0.0	 0.0	 0	    1.03500	    0.00000	 25.0	 0	    1.12000	    0.95000;
	10262	 2	 92.26	 40.00	 0.0	 0.0	 0	    1.03500	    0.00000	 25.0	 0	    1.12000	    0.95000;
	10263	 2	 11.53	 4.00	 0.0	 0.0	 0	    1.03500	    0.00000	 14.0	 0	    1.12000	    0.95000;
	10264	 2	 34.60	 10.00	 0.0	 0.0	 0	    1.03500	    0.00000	 17.0	 0	    1.12000	    0.95000;
	10265	 2	 34.60	 10.00	 0.0	 0.0	 0	    1.03500	    0.00000	 16.0	 0	    1.12000	    0.95000;
	10266	 2	 344.47	 37.90	 0.0	 0.0	 0	    1.03500	    0.00000	 110.0	 0	    1.12000	    0.95000;
	10267	 2	 228.80	 53.40	 0.0	 0.0	 0	    1.03500	    0.00000	 110.0	 0	    1.12000	    0.95000;
	10268	 2	 132.39	 20.40	 0.0	 0.0	 0	    1.03500	    0.00000	 110.0	 0	    1.12000	    0.95000;
	10269	 2	 317.36	 110.60	 0.0	 0.0	 0	    1.03500	    0.00000	 110.0	 0	    1.12000	    0.95000;
	10270	 2	 71.27	 23.70	 0.0	 0.0	 0	    1.03500	    0.00000	 110.0	 0	    1.12000	    0.95000;
	10271	 2	 444.33	 67.00	 0.0	 0.0	 0	    1.03500	    0.00000	 110.0	 0	    1.12000	    0.95000;
	10272	 2	 120.05	 17.50	 0.0	 0.0	 0	    1.03500	    0.00000	 110.0	 0	    1.12000	    0.95000;
	10273	 2	 623.89	 91.40	 0.0	 0.0	 0	    1.03500	    0.00000	 110.0	 0	    1.12000	    0.95000;
	10274	 2	 295.57	 100.70	 0.0	 0.0	 0	    1.03500	    0.00000	 110.0	 0	    1.12000	    0.95000;
	10275	 2	 0.0	 0.0	 0.0	 0.0	 0	    1.03500	    0.00000	 110.0	 0	    1.12000	    0.95000;
	10276	 2	 189.59	 34.00	 0.0	 0.0	 0	    1.03500	    0.00000	 110.0	 0	    1.12000	    0.95000;
	10277	 2	 711.30	 133.20	 0.0	 0.0	 0	    1.03500	    0.00000	 110.0	 0	    1.12000	    0.95000;
	10278	 2	 17.30	 10.00	 0.0	 0.0	 0	    1.03500	    0.00000	 12.0	 0	    1.12000	    0.95000;
	10279	 2	 17.30	 10.00	 0.0	 0.0	 0	    1.03500	    0.00000	 12.0	 0	    1.12000	    0.95000;
	10280	 1	 172.75	 37.00	 0.0	 0.0	 0	    1.03500	    0.00000	 110.0	 0	    1.12000	    0.95000;
	10281	 2	 122.24	 22.40	 0.0	 0.0	 0	    1.03500	    0.00000	 110.0	 0	    1.12000	    0.95000;
	10282	 2	 419.66	 100.10	 0.0	 0.0	 0	    1.03500	    0.00000	 110.0	 0	    1.12000	    0.95000;
	10283	 1	 0.0	 0.0	 0.0	 0.0	 0	    1.03500	    0.00000	 13.0	 0	    1.12000	    0.95000;
	10284	 2	 1294.72	 280.70	 0.0	 0.0	 0	    1.03500	    0.00000	 110.0	 0	    1.12000	    0.95000;
	10285	 2	 179.56	 32.10	 0.0	 0.0	 0	    1.03500	    0.00000	 110.0	 0	    1.12000	    0.95000;
	10288	 2	 227.76	 44.60	 0.0	 0.0	 0	    1.03500	    0.00000	 110.0	 0	    1.12000	    0.95000;
	10289	 2	 143.69	 23.40	 0.0	 0.0	 0	    1.03500	    0.00000	 110.0	 0	    1.12000	    0.95000;
	10290	 2	 171.71	 31.10	 0.0	 0.0	 0	    1.03500	    0.00000	 110.0	 0	    1.12000	    0.95000;
	10291	 2	 305.26	 53.50	 0.0	 0.0	 0	    1.03500	    0.00000	 110.0	 0	    1.12000	    0.95000;
	10292	 2	 420.69	 158.70	 0.0	 0.0	 0	    1.03500	    0.00000	 110.0	 0	    1.12000	    0.95000;
	10293	 2	 62.97	 21.60	 0.0	 0.0	 0	    1.03500	    0.00000	 110.0	 0	    1.12000	    0.95000;
	10294	 2	 20.18	 3.90	 0.0	 0.0	 1	    1.03500	    0.00000	 110.0	 0	    1.12000	    0.95000;
	10295	 2	 397.17	 104.00	 0.0	 0.0	 0	    1.03500	    0.00000	 110.0	 0	    1.12000	    0.95000;
	10296	 2	 317.48	 104.10	 0.0	 0.0	 0	    1.03500	    0.00000	 110.0	 0	    1.12000	    0.95000;
	10297	 1	 188.67	 2.30	 0.0	 0.0	 0	    1.03500	    0.00000	 110.0	 0	    1.12000	    0.95000;
	10298	 1	 104.60	 61.00	 0.0	 0.0	 0	    1.03500	    0.00000	 110.0	 0	    1.12000	    0.95000;
	10299	 1	 362.11	 87.00	 0.0	 0.0	 0	    1.03500	    0.00000	 110.0	 0	    1.12000	    0.95000;
	10300	 1	 39.21	 13.00	 0.0	 0.0	 0	    1.03500	    0.00000	 110.0	 0	    1.12000	    0.95000;
	10301	 1	 107.00	 -22.00	 0.0	 0.0	 0	    1.03500	    0.00000	 110.0	 0	    1.12000	    0.95000;
	10302	 1	 185.67	 58.00	 0.0	 0.0	 0	    1.03500	    0.00000	 110.0	 0	    1.12000	    0.95000;
	10303	 1	 186.24	 37.00	 0.0	 0.0	 0	    1.03500	    0.00000	 110.0	 0	    1.12000	    0.95000;
	10304	 1	 186.24	 37.00	 0.0	 0.0	 0	    1.03500	    0.00000	 110.0	 0	    1.12000	    0.95000;
	10305	 1	 232.00	 -45.90	 0.0	 0.0	 0	    1.03500	    0.00000	 110.0	 0	    1.12000	    0.95000;
	10306	 1	 164.91	 58.10	 0.0	 0.0	 0	    1.03500	    0.00000	 110.0	 0	    1.12000	    0.95000;
	10307	 1	 128.58	 32.50	 0.0	 0.0	 0	    1.03500	    0.00000	 110.0	 0	    1.12000	    0.95000;
	10308	 1	 128.58	 32.50	 0.0	 0.0	 0	    1.03500	    0.00000	 110.0	 0	    1.12000	    0.95000;
	10309	 1	 143.00	 8.10	 0.0	 0.0	 0	    1.03500	    0.00000	 110.0	 0	    1.12000	    0.95000;
	10310	 1	 32.87	 6.00	 0.0	 0.0	 0	    1.03500	    0.00000	 110.0	 0	    1.12000	    0.95000;
	10311	 1	 32.87	 6.00	 0.0	 0.0	 0	    1.03500	    0.00000	 110.0	 0	    1.12000	    0.95000;
	10312	 1	 155.68	 74.00	 0.0	 0.0	 0	    1.03500	    0.00000	 110.0	 0	    1.12000	    0.95000;
	10313	 1	 0.0	 0.0	 0.0	 0.0	 0	    1.03500	    0.00000	 110.0	 0	    1.12000	    0.95000;
	10314	 1	 0.0	 0.0	 0.0	 0.0	 0	    1.03500	    0.00000	 110.0	 0	    1.12000	    0.95000;