%%%%%%%%%%%%%%%%%%%%%%%%%%%%%%%%%%%%%%%%%%%%%%%%%%%%%%%%%%%%%%%%%%%%%%%%%%%
%%%%                                                                  %%%%%
%%%%    IEEE PES Power Grid Library - Optimal Power Flow - v19.05     %%%%%
%%%%          (https://github.com/power-grid-lib/pglib-opf)           %%%%%
%%%%             Benchmark Group - Active Power Increase              %%%%%
%%%%                         10 - May - 2019                          %%%%%
%%%%                                                                  %%%%%
%%%%%%%%%%%%%%%%%%%%%%%%%%%%%%%%%%%%%%%%%%%%%%%%%%%%%%%%%%%%%%%%%%%%%%%%%%%
function mpc = pglib_opf_case2316_sdet__api
mpc.version = '2';
mpc.baseMVA = 100.0;

%% bus data
%	bus_i	type	Pd	Qd	Gs	Bs	area	Vm	Va	baseKV	zone	Vmax	Vmin
mpc.bus = [
	1	 1	 0.0	 0.0	 0.0	 0.0	 1	    1.00000	    0.00000	 345.0	 1	    1.10000	    0.90000;
	2	 1	 0.0	 0.0	 0.0	 -7.13	 1	    1.00000	    0.00000	 345.0	 1	    1.10000	    0.90000;
	3	 1	 3.53	 1.91	 0.0	 0.0	 1	    1.00000	    0.00000	 345.0	 1	    1.10000	    0.90000;
	4	 1	 0.0	 0.0	 0.0	 -9.6	 1	    1.00000	    0.00000	 345.0	 1	    1.10000	    0.90000;
	5	 1	 0.0	 0.0	 0.0	 0.0	 1	    1.00000	    0.00000	 345.0	 1	    1.10000	    0.90000;
	6	 1	 0.0	 0.0	 0.0	 41.99	 1	    1.00000	    0.00000	 345.0	 1	    1.10000	    0.90000;
	7	 1	 0.0	 0.0	 0.0	 0.0	 1	    1.00000	    0.00000	 345.0	 1	    1.10000	    0.90000;
	8	 1	 0.0	 0.0	 0.0	 0.0	 1	    1.00000	    0.00000	 345.0	 1	    1.10000	    0.90000;
	9	 2	 221.28	 -103.64	 0.0	 0.0	 1	    1.00000	    0.00000	 345.0	 1	    1.10000	    0.90000;
	10	 2	 52.68	 73.01	 0.0	 -0.23	 1	    1.00000	    0.00000	 345.0	 1	    1.10000	    0.90000;
	11	 2	 15.87	 7.51	 0.0	 -0.24	 1	    1.00000	    0.00000	 138.0	 1	    1.10000	    0.90000;
	12	 2	 26.63	 10.69	 0.0	 -0.53	 1	    1.00000	    0.00000	 138.0	 1	    1.10000	    0.90000;
	13	 1	 8.03	 2.49	 0.0	 0.0	 1	    1.00000	    0.00000	 138.0	 1	    1.10000	    0.90000;
	14	 1	 25.94	 7.84	 0.0	 0.0	 1	    1.00000	    0.00000	 138.0	 1	    1.10000	    0.90000;
	15	 1	 0.55	 0.10	 0.0	 0.0	 1	    1.00000	    0.00000	 138.0	 1	    1.10000	    0.90000;
	16	 1	 0.0	 0.0	 0.0	 0.0	 1	    1.00000	    0.00000	 138.0	 1	    1.10000	    0.90000;
	17	 1	 13.55	 4.62	 0.0	 0.0	 1	    1.00000	    0.00000	 138.0	 1	    1.10000	    0.90000;
	18	 1	 3.12	 0.80	 0.0	 0.0	 1	    1.00000	    0.00000	 138.0	 1	    1.10000	    0.90000;
	19	 1	 1.90	 0.50	 0.0	 0.0	 1	    1.00000	    0.00000	 138.0	 1	    1.10000	    0.90000;
	20	 2	 20.54	 -35.59	 0.0	 0.0	 1	    1.00000	    0.00000	 138.0	 1	    1.10000	    0.90000;
	21	 1	 18.49	 3.10	 0.0	 0.0	 1	    1.00000	    0.00000	 138.0	 1	    1.10000	    0.90000;
	22	 1	 0.0	 0.0	 0.0	 0.0	 1	    1.00000	    0.00000	 138.0	 1	    1.10000	    0.90000;
	23	 1	 42.51	 -12.87	 0.0	 0.0	 1	    1.00000	    0.00000	 138.0	 1	    1.10000	    0.90000;
	24	 2	 10.84	 5.02	 0.0	 0.0	 1	    1.00000	    0.00000	 138.0	 1	    1.10000	    0.90000;
	25	 2	 0.00	 -0.40	 0.0	 0.0	 1	    1.00000	    0.00000	 138.0	 1	    1.10000	    0.90000;
	26	 2	 44.93	 12.61	 0.0	 -0.32	 1	    1.00000	    0.00000	 138.0	 1	    1.10000	    0.90000;
	27	 1	 5.70	 1.50	 0.0	 0.0	 1	    1.00000	    0.00000	 138.0	 1	    1.10000	    0.90000;
	28	 1	 0.0	 0.0	 0.0	 0.0	 1	    1.00000	    0.00000	 138.0	 1	    1.10000	    0.90000;
	29	 1	 12.07	 3.71	 0.0	 0.0	 1	    1.00000	    0.00000	 138.0	 1	    1.10000	    0.90000;
	30	 1	 0.0	 0.0	 0.0	 0.0	 1	    1.00000	    0.00000	 138.0	 1	    1.10000	    0.90000;
	31	 1	 6.23	 1.71	 0.0	 0.0	 1	    1.00000	    0.00000	 138.0	 1	    1.10000	    0.90000;
	32	 2	 8.95	 3.51	 0.0	 -1.31	 1	    1.00000	    0.00000	 138.0	 1	    1.10000	    0.90000;
	33	 1	 8.95	 4.62	 0.0	 0.0	 1	    1.00000	    0.00000	 138.0	 1	    1.10000	    0.90000;
	34	 1	 0.0	 0.0	 0.0	 0.0	 1	    1.00000	    0.00000	 138.0	 1	    1.10000	    0.90000;
	35	 1	 2.03	 0.50	 0.0	 0.0	 1	    1.00000	    0.00000	 138.0	 1	    1.10000	    0.90000;
	36	 1	 0.0	 0.0	 0.0	 0.0	 1	    1.00000	    0.00000	 138.0	 1	    1.10000	    0.90000;
	37	 1	 0.0	 0.0	 0.0	 0.0	 1	    1.00000	    0.00000	 138.0	 1	    1.10000	    0.90000;
	38	 1	 0.0	 0.0	 0.0	 0.0	 1	    1.00000	    0.00000	 138.0	 1	    1.10000	    0.90000;
	39	 1	 5.98	 0.48	 0.0	 -0.49	 1	    1.00000	    0.00000	 138.0	 1	    1.10000	    0.90000;
	40	 1	 0.0	 0.0	 0.0	 0.0	 1	    1.00000	    0.00000	 138.0	 1	    1.10000	    0.90000;
	41	 1	 2.17	 0.60	 0.0	 0.0	 1	    1.00000	    0.00000	 138.0	 1	    1.10000	    0.90000;
	42	 1	 7.73	 0.90	 0.0	 0.0	 1	    1.00000	    0.00000	 138.0	 1	    1.10000	    0.90000;
	43	 1	 0.0	 0.0	 0.0	 3.71	 1	    1.00000	    0.00000	 138.0	 1	    1.10000	    0.90000;
	44	 1	 20.11	 8.31	 0.0	 0.0	 1	    1.00000	    0.00000	 138.0	 1	    1.10000	    0.90000;
	45	 1	 6.28	 2.28	 0.0	 0.0	 1	    1.00000	    0.00000	 138.0	 1	    1.10000	    0.90000;
	46	 2	 47.19	 15.60	 0.0	 -0.35	 1	    1.00000	    0.00000	 138.0	 1	    1.10000	    0.90000;
	47	 1	 14.86	 4.19	 0.0	 0.0	 1	    1.00000	    0.00000	 138.0	 1	    1.10000	    0.90000;
	48	 1	 0.00	 0.15	 0.0	 0.0	 1	    1.00000	    0.00000	 138.0	 1	    1.10000	    0.90000;
	49	 1	 22.74	 4.21	 0.0	 -4.15	 1	    1.00000	    0.00000	 138.0	 1	    1.10000	    0.90000;
	50	 1	 0.0	 0.0	 0.0	 0.0	 1	    1.00000	    0.00000	 138.0	 1	    1.10000	    0.90000;
	51	 1	 0.0	 0.0	 0.0	 0.0	 1	    1.00000	    0.00000	 138.0	 1	    1.10000	    0.90000;
	52	 1	 23.59	 5.92	 0.0	 0.0	 1	    1.00000	    0.00000	 138.0	 1	    1.10000	    0.90000;
	53	 2	 10.05	 3.22	 0.0	 -61.98	 1	    1.00000	    0.00000	 138.0	 1	    1.10000	    0.90000;
	54	 1	 4.89	 2.11	 0.0	 0.0	 1	    1.00000	    0.00000	 138.0	 1	    1.10000	    0.90000;
	55	 1	 0.32	 0.00	 0.0	 0.0	 1	    1.00000	    0.00000	 138.0	 1	    1.10000	    0.90000;
	56	 1	 8.97	 2.62	 0.0	 0.0	 1	    1.00000	    0.00000	 138.0	 1	    1.10000	    0.90000;
	57	 1	 5.29	 1.49	 0.0	 0.0	 1	    1.00000	    0.00000	 138.0	 1	    1.10000	    0.90000;
	58	 1	 49.85	 -5.88	 0.0	 0.0	 1	    1.00000	    0.00000	 138.0	 1	    1.10000	    0.90000;
	59	 1	 8.41	 2.23	 0.0	 0.0	 1	    1.00000	    0.00000	 138.0	 1	    1.10000	    0.90000;
	60	 1	 1.90	 0.40	 0.0	 0.0	 1	    1.00000	    0.00000	 138.0	 1	    1.10000	    0.90000;
	61	 1	 11.39	 24.27	 0.0	 0.0	 1	    1.00000	    0.00000	 138.0	 1	    1.10000	    0.90000;
	62	 1	 0.0	 0.0	 0.0	 0.0	 1	    1.00000	    0.00000	 138.0	 1	    1.10000	    0.90000;
	63	 1	 5.96	 1.55	 0.0	 0.0	 1	    1.00000	    0.00000	 138.0	 1	    1.10000	    0.90000;
	64	 1	 2.98	 0.80	 0.0	 0.0	 1	    1.00000	    0.00000	 138.0	 1	    1.10000	    0.90000;
	65	 1	 2.72	 0.70	 0.0	 0.0	 1	    1.00000	    0.00000	 138.0	 1	    1.10000	    0.90000;
	66	 1	 9.38	 2.73	 0.0	 0.0	 1	    1.00000	    0.00000	 138.0	 1	    1.10000	    0.90000;
	67	 2	 12.24	 3.73	 0.0	 3.71	 1	    1.00000	    0.00000	 138.0	 1	    1.10000	    0.90000;
	68	 2	 21.82	 33.81	 0.0	 0.0	 1	    1.00000	    0.00000	 138.0	 1	    1.10000	    0.90000;
	69	 1	 0.0	 0.0	 0.0	 -0.29	 1	    1.00000	    0.00000	 138.0	 1	    1.10000	    0.90000;
	70	 1	 31.72	 7.00	 0.0	 0.0	 1	    1.00000	    0.00000	 138.0	 1	    1.10000	    0.90000;
	71	 1	 0.0	 0.0	 0.0	 0.0	 2	    1.00000	    0.00000	 345.0	 2	    1.10000	    0.90000;
	72	 1	 0.0	 0.0	 0.0	 0.0	 2	    1.00000	    0.00000	 345.0	 2	    1.10000	    0.90000;
	73	 1	 0.0	 0.0	 0.0	 0.0	 2	    1.00000	    0.00000	 345.0	 2	    1.10000	    0.90000;
	74	 1	 0.0	 0.0	 0.0	 0.0	 2	    1.00000	    0.00000	 345.0	 2	    1.10000	    0.90000;
	75	 2	 15.23	 30.00	 0.0	 0.0	 2	    1.00000	    0.00000	 345.0	 2	    1.10000	    0.90000;
	76	 2	 25.26	 36.57	 0.0	 0.0	 2	    1.00000	    0.00000	 345.0	 2	    1.10000	    0.90000;
	77	 2	 15.23	 30.00	 0.0	 0.0	 2	    1.00000	    0.00000	 500.0	 2	    1.10000	    0.90000;
	78	 2	 0.0	 0.0	 0.0	 14.58	 2	    1.00000	    0.00000	 345.0	 2	    1.10000	    0.90000;
	79	 1	 0.0	 0.0	 0.0	 0.0	 2	    1.00000	    0.00000	 345.0	 2	    1.10000	    0.90000;
	80	 1	 0.0	 0.0	 0.0	 0.0	 2	    1.00000	    0.00000	 345.0	 2	    1.10000	    0.90000;
	81	 1	 0.0	 0.0	 0.0	 0.0	 2	    1.00000	    0.00000	 345.0	 2	    1.10000	    0.90000;
	82	 1	 0.0	 0.0	 0.0	 0.0	 2	    1.00000	    0.00000	 345.0	 2	    1.10000	    0.90000;
	83	 1	 14.53	 2.64	 0.0	 0.0	 2	    1.00000	    0.00000	 138.0	 2	    1.10000	    0.90000;
	84	 1	 32.88	 6.42	 0.0	 0.0	 2	    1.00000	    0.00000	 138.0	 2	    1.10000	    0.90000;
	85	 1	 0.0	 0.0	 0.0	 0.0	 2	    1.00000	    0.00000	 138.0	 2	    1.10000	    0.90000;
	86	 1	 7.66	 2.42	 0.0	 6.32	 2	    1.00000	    0.00000	 138.0	 2	    1.10000	    0.90000;
	87	 1	 3.83	 1.27	 0.0	 0.0	 2	    1.00000	    0.00000	 138.0	 2	    1.10000	    0.90000;
	88	 1	 8.41	 0.64	 0.0	 0.0	 2	    1.00000	    0.00000	 138.0	 2	    1.10000	    0.90000;
	89	 1	 15.85	 4.85	 0.0	 0.0	 2	    1.00000	    0.00000	 138.0	 2	    1.10000	    0.90000;
	90	 2	 4.61	 0.53	 0.0	 -0.02	 2	    1.00000	    0.00000	 138.0	 2	    1.10000	    0.90000;
	91	 1	 4.49	 1.16	 0.0	 0.0	 2	    1.00000	    0.00000	 138.0	 2	    1.10000	    0.90000;
	92	 2	 24.39	 32.90	 0.0	 0.0	 2	    1.00000	    0.00000	 138.0	 2	    1.10000	    0.90000;
	93	 1	 0.0	 0.0	 0.0	 0.0	 2	    1.00000	    0.00000	 138.0	 2	    1.10000	    0.90000;
	94	 1	 2.91	 0.84	 0.0	 0.0	 2	    1.00000	    0.00000	 138.0	 2	    1.10000	    0.90000;
	95	 2	 5.95	 1.91	 0.0	 3.0	 2	    1.00000	    0.00000	 138.0	 2	    1.10000	    0.90000;
	96	 2	 0.10	 -0.79	 0.0	 0.0	 2	    1.00000	    0.00000	 138.0	 2	    1.10000	    0.90000;
	97	 1	 7.07	 1.97	 0.0	 0.0	 2	    1.00000	    0.00000	 138.0	 2	    1.10000	    0.90000;
	98	 2	 25.67	 25.52	 0.0	 0.0	 2	    1.00000	    0.00000	 138.0	 2	    1.10000	    0.90000;
	99	 2	 15.95	 9.27	 0.0	 0.0	 2	    1.00000	    0.00000	 138.0	 2	    1.10000	    0.90000;
	100	 1	 16.38	 4.74	 0.0	 0.0	 2	    1.00000	    0.00000	 138.0	 2	    1.10000	    0.90000;
	101	 1	 11.89	 3.79	 0.0	 0.0	 2	    1.00000	    0.00000	 138.0	 2	    1.10000	    0.90000;
	102	 1	 17.97	 5.69	 0.0	 0.0	 2	    1.00000	    0.00000	 138.0	 2	    1.10000	    0.90000;
	103	 1	 14.47	 3.74	 0.0	 0.0	 2	    1.00000	    0.00000	 138.0	 2	    1.10000	    0.90000;
	104	 1	 13.21	 3.80	 0.0	 0.0	 2	    1.00000	    0.00000	 138.0	 2	    1.10000	    0.90000;
	105	 1	 0.0	 0.0	 0.0	 0.42	 2	    1.00000	    0.00000	 138.0	 2	    1.10000	    0.90000;
	106	 1	 0.0	 0.0	 0.0	 0.0	 2	    1.00000	    0.00000	 138.0	 2	    1.10000	    0.90000;
	107	 1	 6.97	 0.64	 0.0	 0.0	 2	    1.00000	    0.00000	 138.0	 2	    1.10000	    0.90000;
	108	 1	 8.72	 2.00	 0.0	 0.0	 2	    1.00000	    0.00000	 138.0	 2	    1.10000	    0.90000;
	109	 1	 7.13	 2.32	 0.0	 0.0	 2	    1.00000	    0.00000	 138.0	 2	    1.10000	    0.90000;
	110	 1	 5.28	 1.69	 0.0	 0.0	 2	    1.00000	    0.00000	 138.0	 2	    1.10000	    0.90000;
	111	 1	 1.85	 0.53	 0.0	 0.0	 2	    1.00000	    0.00000	 138.0	 2	    1.10000	    0.90000;
	112	 2	 2.27	 0.76	 0.0	 0.42	 2	    1.00000	    0.00000	 138.0	 2	    1.10000	    0.90000;
	113	 1	 2.12	 0.74	 0.0	 0.0	 2	    1.00000	    0.00000	 138.0	 2	    1.10000	    0.90000;
	114	 1	 3.95	 0.86	 0.0	 0.0	 2	    1.00000	    0.00000	 138.0	 2	    1.10000	    0.90000;
	115	 1	 6.05	 0.54	 0.0	 0.0	 2	    1.00000	    0.00000	 138.0	 2	    1.10000	    0.90000;
	116	 1	 8.98	 1.79	 0.0	 0.0	 2	    1.00000	    0.00000	 138.0	 2	    1.10000	    0.90000;
	117	 1	 14.53	 4.64	 0.0	 6.66	 2	    1.00000	    0.00000	 138.0	 2	    1.10000	    0.90000;
	118	 1	 10.70	 3.37	 0.0	 0.0	 2	    1.00000	    0.00000	 138.0	 2	    1.10000	    0.90000;
	119	 1	 6.77	 -1.70	 0.0	 0.0	 2	    1.00000	    0.00000	 138.0	 2	    1.10000	    0.90000;
	120	 2	 27.75	 12.66	 0.0	 0.0	 2	    1.00000	    0.00000	 138.0	 2	    1.10000	    0.90000;
	121	 1	 31.70	 23.19	 0.0	 0.0	 2	    1.00000	    0.00000	 138.0	 2	    1.10000	    0.90000;
	122	 1	 18.49	 4.22	 0.0	 0.0	 2	    1.00000	    0.00000	 138.0	 2	    1.10000	    0.90000;
	123	 1	 20.47	 4.74	 0.0	 0.0	 2	    1.00000	    0.00000	 138.0	 2	    1.10000	    0.90000;
	124	 2	 6.78	 1.77	 0.0	 0.0	 2	    1.00000	    0.00000	 138.0	 2	    1.10000	    0.90000;
	125	 2	 7.19	 5.84	 0.0	 0.0	 2	    1.00000	    0.00000	 138.0	 2	    1.10000	    0.90000;
	126	 1	 9.77	 3.16	 0.0	 0.0	 2	    1.00000	    0.00000	 138.0	 2	    1.10000	    0.90000;
	127	 2	 0.0	 0.0	 0.0	 0.0	 2	    1.00000	    0.00000	 138.0	 2	    1.10000	    0.90000;
	128	 2	 9.39	 2.54	 0.0	 0.0	 2	    1.00000	    0.00000	 138.0	 2	    1.10000	    0.90000;
	129	 1	 1.52	 0.47	 0.0	 0.0	 2	    1.00000	    0.00000	 138.0	 2	    1.10000	    0.90000;
	130	 1	 7.26	 2.32	 0.0	 0.0	 2	    1.00000	    0.00000	 138.0	 2	    1.10000	    0.90000;
	131	 1	 7.40	 2.32	 0.0	 0.0	 2	    1.00000	    0.00000	 138.0	 2	    1.10000	    0.90000;
	132	 1	 7.93	 1.74	 0.0	 0.0	 2	    1.00000	    0.00000	 138.0	 2	    1.10000	    0.90000;
	133	 1	 7.93	 1.74	 0.0	 0.0	 2	    1.00000	    0.00000	 138.0	 2	    1.10000	    0.90000;
	134	 1	 0.80	 0.21	 0.0	 0.0	 2	    1.00000	    0.00000	 138.0	 2	    1.10000	    0.90000;
	135	 2	 16.66	 5.28	 0.0	 0.0	 2	    1.00000	    0.00000	 138.0	 2	    1.10000	    0.90000;
	136	 2	 11.89	 3.61	 0.0	 0.0	 2	    1.00000	    0.00000	 138.0	 2	    1.10000	    0.90000;
	137	 1	 5.94	 1.90	 0.0	 0.0	 2	    1.00000	    0.00000	 138.0	 2	    1.10000	    0.90000;
	138	 2	 8.20	 2.54	 0.0	 4.2	 2	    1.00000	    0.00000	 138.0	 2	    1.10000	    0.90000;
	139	 1	 27.61	 6.10	 0.0	 0.0	 2	    1.00000	    0.00000	 138.0	 2	    1.10000	    0.90000;
	140	 1	 2.64	 0.84	 0.0	 0.0	 2	    1.00000	    0.00000	 138.0	 2	    1.10000	    0.90000;
	141	 1	 3.44	 1.05	 0.0	 0.0	 2	    1.00000	    0.00000	 138.0	 2	    1.10000	    0.90000;
	142	 1	 5.15	 0.53	 0.0	 0.0	 2	    1.00000	    0.00000	 138.0	 2	    1.10000	    0.90000;
	143	 1	 0.0	 0.0	 0.0	 0.0	 2	    1.00000	    0.00000	 138.0	 2	    1.10000	    0.90000;
	144	 1	 0.0	 0.0	 0.0	 0.0	 2	    1.00000	    0.00000	 138.0	 2	    1.10000	    0.90000;
	145	 1	 0.0	 0.0	 0.0	 0.0	 2	    1.00000	    0.00000	 138.0	 2	    1.10000	    0.90000;
	146	 1	 10.70	 3.06	 0.0	 0.0	 2	    1.00000	    0.00000	 138.0	 2	    1.10000	    0.90000;
	147	 1	 4.76	 0.84	 0.0	 0.0	 2	    1.00000	    0.00000	 138.0	 2	    1.10000	    0.90000;
	148	 1	 35.79	 10.33	 0.0	 0.0	 2	    1.00000	    0.00000	 138.0	 2	    1.10000	    0.90000;
	149	 1	 1.98	 0.63	 0.0	 0.0	 2	    1.00000	    0.00000	 138.0	 2	    1.10000	    0.90000;
	150	 2	 634.00	 0.00	 0.0	 0.0	 2	    1.00000	    0.00000	 345.0	 2	    1.10000	    0.90000;
	151	 1	 103.41	 85.90	 0.0	 0.0	 3	    1.00000	    0.00000	 345.0	 3	    1.10000	    0.90000;
	152	 1	 0.0	 0.0	 0.0	 0.0	 3	    1.00000	    0.00000	 500.0	 3	    1.10000	    0.90000;
	153	 2	 0.0	 0.0	 0.0	 -11.35	 3	    1.00000	    0.00000	 500.0	 3	    1.10000	    0.90000;
	154	 1	 0.0	 0.0	 0.0	 0.0	 3	    1.00000	    0.00000	 500.0	 3	    1.10000	    0.90000;
	155	 1	 0.0	 0.0	 0.0	 0.0	 3	    1.00000	    0.00000	 500.0	 3	    1.10000	    0.90000;
	156	 1	 0.0	 0.0	 0.0	 75.29	 3	    1.00000	    0.00000	 500.0	 3	    1.10000	    0.90000;
	157	 2	 0.0	 0.0	 0.0	 -27.07	 3	    1.00000	    0.00000	 345.0	 3	    1.10000	    0.90000;
	158	 2	 0.0	 0.0	 0.0	 -322.11	 3	    1.00000	    0.00000	 500.0	 3	    1.10000	    0.90000;
	159	 1	 0.0	 0.0	 0.0	 0.0	 3	    1.00000	    0.00000	 500.0	 3	    1.10000	    0.90000;
	160	 1	 0.0	 0.0	 0.0	 0.0	 3	    1.00000	    0.00000	 500.0	 3	    1.10000	    0.90000;
	161	 2	 0.0	 0.0	 0.0	 -124.24	 3	    1.00000	    0.00000	 500.0	 3	    1.10000	    0.90000;
	162	 1	 44.04	 60.16	 0.0	 0.0	 3	    1.00000	    0.00000	 500.0	 3	    1.10000	    0.90000;
	163	 1	 0.0	 0.0	 0.0	 70.0	 3	    1.00000	    0.00000	 500.0	 3	    1.10000	    0.90000;
	164	 1	 0.0	 0.0	 0.0	 0.0	 3	    1.00000	    0.00000	 500.0	 3	    1.10000	    0.90000;
	165	 2	 13.96	 40.00	 0.0	 0.0	 3	    1.00000	    0.00000	 500.0	 3	    1.10000	    0.90000;
	166	 2	 6.34	 10.00	 0.0	 0.0	 3	    1.00000	    0.00000	 500.0	 3	    1.10000	    0.90000;
	167	 1	 8.79	 3.11	 0.0	 0.0	 3	    1.00000	    0.00000	 138.0	 3	    1.10000	    0.90000;
	168	 2	 18.59	 1.00	 0.0	 0.0	 3	    1.00000	    0.00000	 138.0	 3	    1.10000	    0.90000;
	169	 2	 10.33	 1.32	 0.0	 0.0	 3	    1.00000	    0.00000	 138.0	 3	    1.10000	    0.90000;
	170	 1	 17.98	 4.22	 0.0	 0.0	 3	    1.00000	    0.00000	 138.0	 3	    1.10000	    0.90000;
	171	 2	 5.35	 1.00	 0.0	 0.0	 3	    1.00000	    0.00000	 138.0	 3	    1.10000	    0.90000;
	172	 1	 167.38	 57.06	 0.0	 0.0	 3	    1.00000	    0.00000	 138.0	 3	    1.10000	    0.90000;
	173	 1	 0.0	 0.0	 0.0	 48.6	 3	    1.00000	    0.00000	 32.0	 3	    1.10000	    0.90000;
	174	 1	 0.0	 0.0	 0.0	 0.0	 3	    1.00000	    0.00000	 138.0	 3	    1.10000	    0.90000;
	175	 1	 6.62	 2.11	 0.0	 0.0	 3	    1.00000	    0.00000	 138.0	 3	    1.10000	    0.90000;
	176	 1	 3.31	 1.00	 0.0	 0.0	 3	    1.00000	    0.00000	 138.0	 3	    1.10000	    0.90000;
	177	 2	 0.01	 0.01	 0.0	 0.0	 3	    1.00000	    0.00000	 138.0	 3	    1.10000	    0.90000;
	178	 2	 0.01	 0.01	 0.0	 0.0	 3	    1.00000	    0.00000	 138.0	 3	    1.10000	    0.90000;
	179	 1	 19.88	 5.22	 0.0	 0.0	 3	    1.00000	    0.00000	 138.0	 3	    1.10000	    0.90000;
	180	 1	 21.29	 4.72	 0.0	 0.0	 3	    1.00000	    0.00000	 138.0	 3	    1.10000	    0.90000;
	181	 1	 5.35	 0.50	 0.0	 0.0	 3	    1.00000	    0.00000	 138.0	 3	    1.10000	    0.90000;
	182	 1	 13.77	 1.00	 0.0	 0.0	 3	    1.00000	    0.00000	 138.0	 3	    1.10000	    0.90000;
	183	 2	 18.61	 3.11	 0.0	 0.0	 3	    1.00000	    0.00000	 138.0	 3	    1.10000	    0.90000;
	184	 1	 9.57	 1.00	 0.0	 0.0	 3	    1.00000	    0.00000	 138.0	 3	    1.10000	    0.90000;
	185	 2	 2.68	 0.50	 0.0	 0.0	 3	    1.00000	    0.00000	 138.0	 3	    1.10000	    0.90000;
	186	 1	 7.27	 1.00	 0.0	 0.0	 3	    1.00000	    0.00000	 138.0	 3	    1.10000	    0.90000;
	187	 1	 0.0	 0.0	 0.0	 60.0	 3	    1.00000	    0.00000	 16.0	 3	    1.10000	    0.90000;
	188	 2	 11.99	 2.61	 0.0	 0.0	 3	    1.00000	    0.00000	 138.0	 3	    1.10000	    0.90000;
	189	 1	 5.35	 1.00	 0.0	 0.0	 3	    1.00000	    0.00000	 138.0	 3	    1.10000	    0.90000;
	190	 1	 29.32	 8.34	 0.0	 0.0	 3	    1.00000	    0.00000	 138.0	 3	    1.10000	    0.90000;
	191	 1	 19.88	 2.61	 0.0	 0.0	 3	    1.00000	    0.00000	 138.0	 3	    1.10000	    0.90000;
	192	 1	 25.24	 6.83	 0.0	 0.0	 3	    1.00000	    0.00000	 138.0	 3	    1.10000	    0.90000;
	193	 1	 10.58	 2.71	 0.0	 0.0	 3	    1.00000	    0.00000	 138.0	 3	    1.10000	    0.90000;
	194	 2	 21.29	 6.33	 0.0	 0.0	 3	    1.00000	    0.00000	 138.0	 3	    1.10000	    0.90000;
	195	 2	 18.61	 3.11	 0.0	 0.0	 3	    1.00000	    0.00000	 138.0	 3	    1.10000	    0.90000;
	196	 1	 5.80	 -0.22	 0.0	 0.0	 3	    1.00000	    0.00000	 138.0	 3	    1.10000	    0.90000;
	197	 1	 9.30	 2.11	 0.0	 0.0	 3	    1.00000	    0.00000	 138.0	 3	    1.10000	    0.90000;
	198	 1	 6.62	 0.50	 0.0	 0.0	 3	    1.00000	    0.00000	 138.0	 3	    1.10000	    0.90000;
	199	 1	 0.0	 0.0	 0.0	 -16.07	 3	    1.00000	    0.00000	 138.0	 3	    1.10000	    0.90000;
	200	 1	 0.0	 0.0	 0.0	 -2.01	 3	    1.00000	    0.00000	 138.0	 3	    1.10000	    0.90000;
	201	 2	 11.99	 1.00	 0.0	 0.0	 3	    1.00000	    0.00000	 138.0	 3	    1.10000	    0.90000;
	202	 1	 27.31	 0.64	 0.0	 0.0	 3	    1.00000	    0.00000	 138.0	 3	    1.10000	    0.90000;
	203	 1	 13.26	 1.00	 0.0	 0.0	 3	    1.00000	    0.00000	 138.0	 3	    1.10000	    0.90000;
	204	 1	 10.58	 3.11	 0.0	 0.0	 3	    1.00000	    0.00000	 138.0	 3	    1.10000	    0.90000;
	205	 1	 0.0	 0.0	 0.0	 0.0	 3	    1.00000	    0.00000	 138.0	 3	    1.10000	    0.90000;
	206	 1	 18.61	 3.11	 0.0	 0.0	 3	    1.00000	    0.00000	 138.0	 3	    1.10000	    0.90000;
	207	 2	 38.62	 4.22	 0.0	 0.0	 3	    1.00000	    0.00000	 138.0	 3	    1.10000	    0.90000;
	208	 1	 23.97	 4.72	 0.0	 0.0	 3	    1.00000	    0.00000	 138.0	 3	    1.10000	    0.90000;
	209	 2	 14.66	 1.00	 0.0	 0.0	 3	    1.00000	    0.00000	 138.0	 3	    1.10000	    0.90000;
	210	 1	 22.56	 4.22	 0.0	 0.0	 3	    1.00000	    0.00000	 138.0	 3	    1.10000	    0.90000;
	211	 1	 0.0	 0.0	 0.0	 0.0	 3	    1.00000	    0.00000	 138.0	 3	    1.10000	    0.90000;
	212	 1	 0.27	 -1.51	 0.0	 0.0	 3	    1.00000	    0.00000	 138.0	 3	    1.10000	    0.90000;
	213	 1	 3.04	 -0.86	 0.0	 0.0	 3	    1.00000	    0.00000	 138.0	 3	    1.10000	    0.90000;
	214	 1	 0.0	 0.0	 0.0	 -15.19	 3	    1.00000	    0.00000	 138.0	 3	    1.10000	    0.90000;
	215	 1	 0.0	 0.0	 0.0	 -14.11	 3	    1.00000	    0.00000	 138.0	 3	    1.10000	    0.90000;
	216	 1	 0.0	 0.0	 0.0	 0.0	 3	    1.00000	    0.00000	 500.0	 3	    1.10000	    0.90000;
	217	 2	 0.0	 0.0	 0.0	 0.0	 4	    1.00000	    0.00000	 345.0	 4	    1.10000	    0.90000;
	218	 1	 16.98	 129.99	 0.0	 0.0	 4	    1.00000	    0.00000	 345.0	 4	    1.10000	    0.90000;
	219	 1	 0.0	 0.0	 0.0	 0.0	 4	    1.00000	    0.00000	 345.0	 4	    1.10000	    0.90000;
	220	 1	 0.0	 0.0	 0.0	 0.0	 4	    1.00000	    0.00000	 345.0	 4	    1.10000	    0.90000;
	221	 1	 0.0	 0.0	 0.0	 13.92	 4	    1.00000	    0.00000	 345.0	 4	    1.10000	    0.90000;
	222	 1	 124.29	 60.58	 0.0	 0.0	 4	    1.00000	    0.00000	 345.0	 4	    1.10000	    0.90000;
	223	 2	 12.69	 44.00	 0.0	 0.0	 4	    1.00000	    0.00000	 345.0	 4	    1.10000	    0.90000;
	224	 2	 12.69	 44.00	 0.0	 0.0	 4	    1.00000	    0.00000	 345.0	 4	    1.10000	    0.90000;
	225	 2	 23.09	 37.21	 0.0	 -110.36	 4	    1.00000	    0.00000	 345.0	 4	    1.10000	    0.90000;
	226	 1	 0.0	 0.0	 0.0	 -18.63	 4	    1.00000	    0.00000	 345.0	 4	    1.10000	    0.90000;
	227	 2	 0.00	 -0.79	 0.0	 0.0	 4	    1.00000	    0.00000	 345.0	 4	    1.10000	    0.90000;
	228	 2	 0.00	 -0.79	 0.0	 0.0	 4	    1.00000	    0.00000	 345.0	 4	    1.10000	    0.90000;
	229	 1	 4.61	 1.30	 0.0	 0.0	 4	    1.00000	    0.00000	 138.0	 4	    1.10000	    0.90000;
	230	 1	 0.0	 0.0	 0.0	 0.0	 4	    1.00000	    0.00000	 138.0	 4	    1.10000	    0.90000;
	231	 1	 29.40	 -9.75	 0.0	 0.0	 4	    1.00000	    0.00000	 138.0	 4	    1.10000	    0.90000;
	232	 1	 0.0	 0.0	 0.0	 4.35	 4	    1.00000	    0.00000	 138.0	 4	    1.10000	    0.90000;
	233	 1	 13.55	 4.62	 0.0	 0.0	 4	    1.00000	    0.00000	 138.0	 4	    1.10000	    0.90000;
	234	 1	 6.92	 4.11	 0.0	 0.0	 4	    1.00000	    0.00000	 138.0	 4	    1.10000	    0.90000;
	235	 2	 81.92	 15.85	 0.0	 -0.25	 4	    1.00000	    0.00000	 138.0	 4	    1.10000	    0.90000;
	236	 2	 1.60	 -0.54	 0.0	 -0.25	 4	    1.00000	    0.00000	 138.0	 4	    1.10000	    0.90000;
	237	 1	 0.0	 0.0	 0.0	 0.0	 4	    1.00000	    0.00000	 138.0	 4	    1.10000	    0.90000;
	238	 1	 72.33	 19.30	 0.0	 0.0	 4	    1.00000	    0.00000	 138.0	 4	    1.10000	    0.90000;
	239	 1	 0.0	 0.0	 0.0	 0.0	 4	    1.00000	    0.00000	 138.0	 4	    1.10000	    0.90000;
	240	 1	 0.0	 0.0	 0.0	 0.0	 4	    1.00000	    0.00000	 138.0	 4	    1.10000	    0.90000;
	241	 1	 49.11	 7.98	 0.0	 0.0	 4	    1.00000	    0.00000	 138.0	 4	    1.10000	    0.90000;
	242	 1	 1.50	 0.20	 0.0	 0.0	 4	    1.00000	    0.00000	 138.0	 4	    1.10000	    0.90000;
	243	 1	 18.85	 -9.82	 0.0	 0.0	 4	    1.00000	    0.00000	 138.0	 4	    1.10000	    0.90000;
	244	 1	 5.70	 1.50	 0.0	 0.0	 4	    1.00000	    0.00000	 138.0	 4	    1.10000	    0.90000;
	245	 2	 0.0	 0.0	 0.0	 -10.36	 4	    1.00000	    0.00000	 138.0	 4	    1.10000	    0.90000;
	246	 2	 12.69	 44.00	 0.0	 -0.29	 4	    1.00000	    0.00000	 138.0	 4	    1.10000	    0.90000;
	247	 1	 12.07	 3.71	 0.0	 0.0	 4	    1.00000	    0.00000	 138.0	 4	    1.10000	    0.90000;
	248	 2	 0.0	 0.0	 0.0	 0.0	 4	    1.00000	    0.00000	 138.0	 4	    1.10000	    0.90000;
	249	 1	 7.60	 2.04	 0.0	 0.0	 4	    1.00000	    0.00000	 138.0	 4	    1.10000	    0.90000;
	250	 1	 0.0	 0.0	 0.0	 0.0	 4	    1.00000	    0.00000	 138.0	 4	    1.10000	    0.90000;
	251	 1	 9.49	 4.01	 0.0	 0.0	 4	    1.00000	    0.00000	 138.0	 4	    1.10000	    0.90000;
	252	 2	 24.74	 48.00	 0.0	 -0.29	 4	    1.00000	    0.00000	 138.0	 4	    1.10000	    0.90000;
	253	 1	 14.02	 4.30	 0.0	 6.24	 4	    1.00000	    0.00000	 138.0	 4	    1.10000	    0.90000;
	254	 1	 61.19	 -9.58	 0.0	 0.0	 4	    1.00000	    0.00000	 138.0	 4	    1.10000	    0.90000;
	255	 1	 8.03	 2.49	 0.0	 7.31	 4	    1.00000	    0.00000	 138.0	 4	    1.10000	    0.90000;
	256	 1	 3.12	 0.92	 0.0	 0.0	 4	    1.00000	    0.00000	 138.0	 4	    1.10000	    0.90000;
	257	 1	 1.62	 0.30	 0.0	 0.0	 4	    1.00000	    0.00000	 138.0	 4	    1.10000	    0.90000;
	258	 1	 0.0	 0.0	 0.0	 0.0	 4	    1.00000	    0.00000	 138.0	 4	    1.10000	    0.90000;
	259	 1	 8.15	 2.28	 0.0	 0.0	 4	    1.00000	    0.00000	 138.0	 4	    1.10000	    0.90000;
	260	 1	 15.63	 4.77	 0.0	 0.0	 4	    1.00000	    0.00000	 138.0	 4	    1.10000	    0.90000;
	261	 1	 4.47	 1.10	 0.0	 0.0	 4	    1.00000	    0.00000	 138.0	 4	    1.10000	    0.90000;
	262	 1	 0.0	 0.0	 0.0	 0.0	 4	    1.00000	    0.00000	 138.0	 4	    1.10000	    0.90000;
	263	 1	 2.84	 0.70	 0.0	 0.0	 4	    1.00000	    0.00000	 138.0	 4	    1.10000	    0.90000;
	264	 1	 0.0	 0.0	 0.0	 0.0	 4	    1.00000	    0.00000	 138.0	 4	    1.10000	    0.90000;
	265	 1	 6.37	 1.76	 0.0	 0.0	 4	    1.00000	    0.00000	 138.0	 4	    1.10000	    0.90000;
	266	 1	 7.04	 1.91	 0.0	 0.0	 4	    1.00000	    0.00000	 138.0	 4	    1.10000	    0.90000;
	267	 1	 0.0	 0.0	 0.0	 0.0	 4	    1.00000	    0.00000	 138.0	 4	    1.10000	    0.90000;
	268	 1	 23.70	 10.15	 0.0	 0.0	 4	    1.00000	    0.00000	 138.0	 4	    1.10000	    0.90000;
	269	 1	 4.75	 -0.52	 0.0	 0.0	 4	    1.00000	    0.00000	 138.0	 4	    1.10000	    0.90000;
	270	 1	 5.15	 1.30	 0.0	 0.0	 4	    1.00000	    0.00000	 138.0	 4	    1.10000	    0.90000;
	271	 1	 3.79	 0.90	 0.0	 5.93	 4	    1.00000	    0.00000	 138.0	 4	    1.10000	    0.90000;
	272	 1	 0.0	 0.0	 0.0	 0.0	 4	    1.00000	    0.00000	 138.0	 4	    1.10000	    0.90000;
	273	 1	 0.0	 0.0	 0.0	 0.0	 4	    1.00000	    0.00000	 138.0	 4	    1.10000	    0.90000;
	274	 2	 406.00	 0.00	 0.0	 0.0	 4	    1.00000	    0.00000	 345.0	 4	    1.10000	    0.90000;
	275	 1	 0.0	 0.0	 0.0	 84.79	 5	    1.00000	    0.00000	 345.0	 5	    1.10000	    0.90000;
	276	 1	 0.0	 0.0	 0.0	 0.0	 5	    1.00000	    0.00000	 500.0	 5	    1.10000	    0.90000;
	277	 2	 0.0	 0.0	 0.0	 110.69	 5	    1.00000	    0.00000	 500.0	 5	    1.10000	    0.90000;
	278	 1	 0.0	 0.0	 0.0	 0.0	 5	    1.00000	    0.00000	 500.0	 5	    1.10000	    0.90000;
	279	 1	 0.0	 0.0	 0.0	 0.0	 5	    1.00000	    0.00000	 500.0	 5	    1.10000	    0.90000;
	280	 1	 196.17	 71.72	 0.0	 0.0	 5	    1.00000	    0.00000	 500.0	 5	    1.10000	    0.90000;
	281	 2	 0.0	 0.0	 0.0	 2.15	 5	    1.00000	    0.00000	 345.0	 5	    1.10000	    0.90000;
	282	 2	 0.0	 0.0	 0.0	 -373.27	 5	    1.00000	    0.00000	 500.0	 5	    1.10000	    0.90000;
	283	 1	 0.0	 0.0	 0.0	 0.0	 5	    1.00000	    0.00000	 500.0	 5	    1.10000	    0.90000;
	284	 1	 0.0	 0.0	 0.0	 0.0	 5	    1.00000	    0.00000	 500.0	 5	    1.10000	    0.90000;
	285	 2	 0.0	 0.0	 0.0	 -161.35	 5	    1.00000	    0.00000	 500.0	 5	    1.10000	    0.90000;
	286	 1	 110.25	 60.16	 0.0	 0.0	 5	    1.00000	    0.00000	 500.0	 5	    1.10000	    0.90000;
	287	 1	 0.0	 0.0	 0.0	 70.0	 5	    1.00000	    0.00000	 500.0	 5	    1.10000	    0.90000;
	288	 1	 0.0	 0.0	 0.0	 0.0	 5	    1.00000	    0.00000	 500.0	 5	    1.10000	    0.90000;
	289	 2	 13.96	 40.00	 0.0	 0.0	 5	    1.00000	    0.00000	 500.0	 5	    1.10000	    0.90000;
	290	 2	 6.34	 10.00	 0.0	 0.0	 5	    1.00000	    0.00000	 500.0	 5	    1.10000	    0.90000;
	291	 1	 8.79	 3.11	 0.0	 0.0	 5	    1.00000	    0.00000	 138.0	 5	    1.10000	    0.90000;
	292	 2	 18.59	 1.00	 0.0	 0.0	 5	    1.00000	    0.00000	 138.0	 5	    1.10000	    0.90000;
	293	 2	 10.33	 1.32	 0.0	 0.0	 5	    1.00000	    0.00000	 138.0	 5	    1.10000	    0.90000;
	294	 1	 17.98	 4.22	 0.0	 0.0	 5	    1.00000	    0.00000	 138.0	 5	    1.10000	    0.90000;
	295	 2	 5.35	 1.00	 0.0	 0.0	 5	    1.00000	    0.00000	 138.0	 5	    1.10000	    0.90000;
	296	 1	 167.38	 57.06	 0.0	 0.0	 5	    1.00000	    0.00000	 138.0	 5	    1.10000	    0.90000;
	297	 1	 0.0	 0.0	 0.0	 48.6	 5	    1.00000	    0.00000	 32.0	 5	    1.10000	    0.90000;
	298	 1	 0.0	 0.0	 0.0	 0.0	 5	    1.00000	    0.00000	 138.0	 5	    1.10000	    0.90000;
	299	 1	 6.62	 2.11	 0.0	 0.0	 5	    1.00000	    0.00000	 138.0	 5	    1.10000	    0.90000;
	300	 1	 3.31	 1.00	 0.0	 0.0	 5	    1.00000	    0.00000	 138.0	 5	    1.10000	    0.90000;
	301	 2	 0.01	 0.01	 0.0	 0.0	 5	    1.00000	    0.00000	 138.0	 5	    1.10000	    0.90000;
	302	 2	 0.01	 0.01	 0.0	 0.0	 5	    1.00000	    0.00000	 138.0	 5	    1.10000	    0.90000;
	303	 1	 19.88	 5.22	 0.0	 0.0	 5	    1.00000	    0.00000	 138.0	 5	    1.10000	    0.90000;
	304	 1	 21.29	 4.72	 0.0	 0.0	 5	    1.00000	    0.00000	 138.0	 5	    1.10000	    0.90000;
	305	 1	 5.35	 0.50	 0.0	 0.0	 5	    1.00000	    0.00000	 138.0	 5	    1.10000	    0.90000;
	306	 1	 13.77	 1.00	 0.0	 0.0	 5	    1.00000	    0.00000	 138.0	 5	    1.10000	    0.90000;
	307	 2	 18.61	 3.11	 0.0	 0.0	 5	    1.00000	    0.00000	 138.0	 5	    1.10000	    0.90000;
	308	 1	 9.57	 1.00	 0.0	 0.0	 5	    1.00000	    0.00000	 138.0	 5	    1.10000	    0.90000;
	309	 2	 2.68	 0.50	 0.0	 22.81	 5	    1.00000	    0.00000	 138.0	 5	    1.10000	    0.90000;
	310	 1	 7.27	 1.00	 0.0	 0.0	 5	    1.00000	    0.00000	 138.0	 5	    1.10000	    0.90000;
	311	 1	 0.0	 0.0	 0.0	 60.0	 5	    1.00000	    0.00000	 16.0	 5	    1.10000	    0.90000;
	312	 2	 11.99	 2.61	 0.0	 0.0	 5	    1.00000	    0.00000	 138.0	 5	    1.10000	    0.90000;
	313	 1	 5.35	 1.00	 0.0	 0.0	 5	    1.00000	    0.00000	 138.0	 5	    1.10000	    0.90000;
	314	 1	 29.32	 8.34	 0.0	 0.0	 5	    1.00000	    0.00000	 138.0	 5	    1.10000	    0.90000;
	315	 1	 19.88	 2.61	 0.0	 0.0	 5	    1.00000	    0.00000	 138.0	 5	    1.10000	    0.90000;
	316	 1	 25.24	 6.83	 0.0	 0.0	 5	    1.00000	    0.00000	 138.0	 5	    1.10000	    0.90000;
	317	 1	 10.58	 2.71	 0.0	 0.0	 5	    1.00000	    0.00000	 138.0	 5	    1.10000	    0.90000;