%%%%%%%%%%%%%%%%%%%%%%%%%%%%%%%%%%%%%%%%%%%%%%%%%%%%%%%%%%%%%%%%%%%%%%%%%%%
%%%%                                                                  %%%%%
%%%%    IEEE PES Power Grid Library - Optimal Power Flow - v17.07     %%%%%
%%%%          (https://github.com/power-grid-lib/pglib-opf)           %%%%%
%%%%             Benchmark Group - Active Power Increase              %%%%%
%%%%                         27 - June - 2017                         %%%%%
%%%%                                                                  %%%%%
%%%%%%%%%%%%%%%%%%%%%%%%%%%%%%%%%%%%%%%%%%%%%%%%%%%%%%%%%%%%%%%%%%%%%%%%%%%
function mpc = pglib_opf_case2383wp_mp__api
mpc.version = '2';
mpc.baseMVA = 100.0;

%% area data
%	area	refbus
mpc.areas = [
	1	 18;
];

%% bus data
%	bus_i	type	Pd	Qd	Gs	Bs	area	Vm	Va	baseKV	zone	Vmax	Vmin
mpc.bus = [
	1	 1	 0.00	 0.00	 0.0	 0.0	 1	    1.09351	   -1.07010	 220.0	 1	    1.11000	    0.95000;
	2	 1	 0.00	 0.00	 0.0	 0.0	 1	    1.08469	   -1.26309	 220.0	 1	    1.11000	    0.95000;
	3	 1	 0.00	 0.00	 0.0	 0.0	 1	    1.05390	  -15.37873	 220.0	 1	    1.11000	    0.95000;
	4	 1	 0.00	 0.00	 0.0	 0.0	 1	    1.07424	   -3.79509	 220.0	 1	    1.11000	    0.95000;
	5	 1	 0.00	 0.00	 0.0	 0.0	 1	    1.07548	   -5.72135	 220.0	 1	    1.11000	    0.95000;
	6	 1	 0.00	 0.00	 0.0	 0.0	 1	    1.04438	   -1.21624	 400.0	 1	    1.05000	    0.95000;
	7	 1	 0.00	 0.00	 0.0	 0.0	 1	    1.07263	   -6.12026	 220.0	 1	    1.11000	    0.95000;
	8	 1	 0.00	 0.00	 0.0	 0.0	 1	    1.04905	   -0.94677	 400.0	 1	    1.05000	    0.95000;
	9	 1	 0.00	 0.00	 0.0	 0.0	 1	    1.05000	   -3.23927	 400.0	 1	    1.05000	    0.95000;
	10	 2	 12.75	 9.00	 0.0	 0.0	 1	    1.07961	  -11.62084	 220.0	 1	    1.11000	    0.95000;
	11	 1	 0.00	 0.00	 0.0	 0.0	 1	    1.07897	   -3.15134	 220.0	 1	    1.11000	    0.95000;
	12	 1	 0.00	 0.00	 0.0	 0.0	 1	    1.07143	   -6.12854	 220.0	 1	    1.11000	    0.95000;
	13	 1	 0.00	 0.00	 0.0	 0.0	 1	    1.07588	   -5.63221	 220.0	 1	    1.11000	    0.95000;
	14	 1	 0.00	 0.00	 0.0	 0.0	 1	    1.06903	   -2.94166	 220.0	 1	    1.11000	    0.95000;
	15	 1	 0.00	 0.00	 0.0	 0.0	 1	    1.03371	   -3.50274	 400.0	 1	    1.05000	    0.95000;
	16	 2	 57.22	 100.00	 0.0	 0.0	 1	    1.09631	   -0.60851	 220.0	 1	    1.11000	    0.95000;
	17	 2	 80.28	 150.00	 0.0	 0.0	 1	    1.08895	   -0.53722	 220.0	 1	    1.11000	    0.95000;
	18	 3	 159.52	 350.00	 0.0	 0.0	 1	    1.03478	   -0.00000	 400.0	 1	    1.05000	    0.95000;
	19	 1	 0.00	 0.00	 0.0	 0.0	 1	    1.07413	   -6.83049	 220.0	 1	    1.11000	    0.95000;
	20	 1	 0.00	 0.00	 0.0	 0.0	 1	    1.03609	    0.46211	 400.0	 1	    1.05000	    0.95000;
	21	 1	 0.00	 0.00	 0.0	 0.0	 1	    1.07392	   -6.54357	 220.0	 1	    1.11000	    0.95000;
	22	 1	 0.00	 0.00	 0.0	 0.0	 1	    1.07407	   -3.98300	 220.0	 1	    1.11000	    0.95000;
	23	 1	 0.00	 0.00	 0.0	 0.0	 1	    1.09603	    1.57724	 220.0	 2	    1.11000	    0.95000;
	24	 1	 0.00	 0.00	 0.0	 0.0	 1	    1.07136	   -0.26822	 220.0	 2	    1.11000	    0.95000;
	25	 1	 0.00	 0.00	 0.0	 0.0	 1	    1.07386	    0.20841	 220.0	 2	    1.11000	    0.95000;
	26	 1	 0.00	 0.00	 0.0	 0.0	 1	    1.09413	    1.09353	 220.0	 2	    1.11000	    0.95000;
	27	 1	 0.00	 0.00	 0.0	 0.0	 1	    1.07974	   -0.93724	 220.0	 2	    1.11000	    0.95000;
	28	 1	 0.00	 0.00	 0.0	 0.0	 1	    1.07973	   -0.93759	 220.0	 2	    1.11000	    0.95000;
	29	 2	 27.09	 60.00	 0.0	 0.0	 1	    1.11000	    4.05081	 220.0	 2	    1.11000	    0.95000;
	30	 2	 27.09	 60.00	 0.0	 0.0	 1	    1.10988	    4.06502	 220.0	 2	    1.11000	    0.95000;
	31	 2	 21.87	 50.00	 0.0	 0.0	 1	    1.04643	    3.96385	 400.0	 2	    1.05000	    0.95000;
	32	 1	 0.00	 0.00	 0.0	 0.0	 1	    1.04641	    3.95933	 400.0	 2	    1.05000	    0.95000;
	33	 1	 0.00	 0.00	 0.0	 0.0	 1	    1.07491	   -1.63485	 220.0	 2	    1.11000	    0.95000;
	34	 1	 0.00	 0.00	 0.0	 0.0	 1	    1.04374	    0.27437	 400.0	 2	    1.05000	    0.95000;
	35	 1	 0.00	 0.00	 0.0	 0.0	 1	    1.04378	    0.27099	 400.0	 2	    1.05000	    0.95000;
	36	 1	 0.00	 0.00	 0.0	 0.0	 1	    1.03690	    3.05519	 400.0	 2	    1.05000	    0.95000;
	37	 1	 0.00	 0.00	 0.0	 0.0	 1	    1.10200	    2.14039	 220.0	 2	    1.11000	    0.95000;
	38	 1	 0.00	 0.00	 0.0	 0.0	 1	    1.10200	    2.14114	 220.0	 2	    1.11000	    0.95000;
	39	 1	 0.00	 0.00	 0.0	 0.0	 1	    1.01926	    2.41261	 400.0	 2	    1.05000	    0.95000;
	40	 1	 0.00	 0.00	 0.0	 0.0	 1	    1.01916	    2.40926	 400.0	 2	    1.05000	    0.95000;
	41	 2	 12.50	 30.00	 0.0	 0.0	 1	    1.07442	    0.65791	 220.0	 2	    1.11000	    0.95000;
	42	 2	 12.50	 30.00	 0.0	 0.0	 1	    1.07455	    0.65218	 220.0	 2	    1.11000	    0.95000;
	43	 2	 25.00	 60.00	 0.0	 0.0	 1	    1.01076	    3.04581	 400.0	 2	    1.05000	    0.95000;
	44	 2	 25.00	 60.00	 0.0	 0.0	 1	    1.01084	    3.04212	 400.0	 2	    1.05000	    0.95000;
	45	 2	 166.65	 75.00	 0.0	 0.0	 1	    1.10249	    2.14988	 220.0	 2	    1.11000	    0.95000;
	46	 1	 0.00	 0.00	 0.0	 0.0	 1	    1.10249	    2.15344	 220.0	 2	    1.11000	    0.95000;
	47	 1	 0.00	 0.00	 0.0	 0.0	 1	    1.07455	   -1.65092	 220.0	 2	    1.11000	    0.95000;
	48	 1	 0.00	 0.00	 0.0	 0.0	 1	    1.09354	    1.33377	 220.0	 2	    1.11000	    0.95000;
	49	 1	 0.00	 0.00	 0.0	 0.0	 1	    1.09354	    1.33618	 220.0	 2	    1.11000	    0.95000;
	50	 1	 0.00	 0.00	 0.0	 0.0	 1	    1.02841	    1.40754	 400.0	 2	    1.05000	    0.95000;
	51	 1	 0.00	 0.00	 0.0	 0.0	 1	    1.02852	    1.39672	 400.0	 2	    1.05000	    0.95000;
	52	 1	 0.00	 0.00	 0.0	 0.0	 1	    1.07238	    0.03493	 220.0	 2	    1.11000	    0.95000;
	53	 1	 0.00	 0.00	 0.0	 0.0	 1	    1.07545	    0.21373	 220.0	 2	    1.11000	    0.95000;
	54	 1	 0.00	 0.00	 0.0	 0.0	 1	    1.07392	    0.21880	 220.0	 2	    1.11000	    0.95000;
	55	 1	 0.00	 0.00	 0.0	 0.0	 1	    1.10404	    2.72407	 220.0	 2	    1.11000	    0.95000;
	56	 1	 0.00	 0.00	 0.0	 0.0	 1	    1.08025	   -0.58138	 220.0	 3	    1.11000	    0.95000;
	57	 1	 23.96	 10.96	 0.0	 0.0	 1	    1.09089	   -0.07859	 220.0	 3	    1.11000	    0.95000;
	58	 1	 22.92	 5.79	 0.0	 0.0	 1	    1.09112	   -0.07771	 220.0	 3	    1.11000	    0.95000;
	59	 1	 0.00	 0.00	 0.0	 0.0	 1	    1.10011	    3.50453	 220.0	 3	    1.11000	    0.95000;
	60	 1	 0.00	 0.00	 0.0	 0.0	 1	    1.10026	    2.97222	 220.0	 3	    1.11000	    0.95000;
	61	 1	 0.00	 0.00	 0.0	 0.0	 1	    1.10888	    5.42717	 220.0	 3	    1.11000	    0.95000;
	62	 1	 0.00	 0.00	 0.0	 0.0	 1	    1.10887	    5.42825	 220.0	 3	    1.11000	    0.95000;
	63	 2	 38.96	 52.69	 0.0	 0.0	 1	    1.10462	    3.57697	 220.0	 3	    1.11000	    0.95000;
	64	 2	 36.88	 55.32	 0.0	 0.0	 1	    1.10975	    4.64247	 220.0	 3	    1.11000	    0.95000;
	65	 1	 13.96	 2.02	 0.0	 0.0	 1	    1.09929	    3.24555	 220.0	 3	    1.11000	    0.95000;
	66	 1	 0.00	 0.00	 0.0	 0.0	 1	    1.10061	    4.17197	 220.0	 3	    1.11000	    0.95000;
	67	 2	 62.97	 92.10	 0.0	 0.0	 1	    1.05000	    5.85363	 400.0	 3	    1.05000	    0.95000;
	68	 1	 0.00	 0.00	 0.0	 0.0	 1	    1.09073	    3.61516	 220.0	 3	    1.11000	    0.95000;
	69	 1	 0.00	 0.00	 0.0	 0.0	 1	    1.10227	    5.85148	 220.0	 3	    1.11000	    0.95000;
	70	 1	 0.00	 0.00	 0.0	 0.0	 1	    1.08697	    0.17102	 220.0	 3	    1.11000	    0.95000;
	71	 1	 0.00	 0.00	 0.0	 0.0	 1	    1.10245	    3.06347	 220.0	 3	    1.11000	    0.95000;
	72	 1	 0.00	 0.00	 0.0	 0.0	 1	    1.10245	    3.06347	 220.0	 3	    1.11000	    0.95000;
	73	 1	 0.00	 0.00	 0.0	 0.0	 1	    1.09132	    0.64181	 220.0	 3	    1.11000	    0.95000;
	74	 1	 0.00	 0.00	 0.0	 0.0	 1	    1.08766	    0.01399	 220.0	 3	    1.11000	    0.95000;
	75	 1	 0.00	 0.00	 0.0	 0.0	 1	    1.03818	   -0.50024	 400.0	 3	    1.05000	    0.95000;
	76	 1	 0.00	 0.00	 0.0	 0.0	 1	    1.03817	   -0.49996	 400.0	 3	    1.05000	    0.95000;
	77	 1	 0.00	 0.00	 0.0	 0.0	 1	    1.09915	    4.00459	 220.0	 3	    1.11000	    0.95000;
	78	 1	 0.00	 0.00	 0.0	 0.0	 1	    1.09804	    3.18263	 220.0	 3	    1.11000	    0.95000;
	79	 1	 0.00	 0.00	 0.0	 0.0	 1	    1.10219	    3.32087	 220.0	 3	    1.11000	    0.95000;
	80	 1	 0.00	 0.00	 0.0	 0.0	 1	    1.09153	   -0.02516	 220.0	 3	    1.11000	    0.95000;
	81	 1	 0.00	 0.00	 0.0	 0.0	 1	    1.09155	   -0.02561	 220.0	 3	    1.11000	    0.95000;
	82	 1	 0.00	 0.00	 0.0	 0.0	 1	    1.10559	    5.00553	 220.0	 3	    1.11000	    0.95000;
	83	 2	 16.67	 22.97	 0.0	 0.0	 1	    1.11000	    6.58590	 220.0	 3	    1.11000	    0.95000;
	84	 2	 16.46	 22.27	 0.0	 0.0	 1	    1.11000	    6.57614	 220.0	 3	    1.11000	    0.95000;
	85	 2	 10.42	 17.01	 0.0	 0.0	 1	    1.10584	    2.85689	 220.0	 3	    1.11000	    0.95000;
	86	 2	 10.42	 16.66	 0.0	 0.0	 1	    1.10584	    2.85215	 220.0	 3	    1.11000	    0.95000;
	87	 1	 11.56	 16.22	 0.0	 0.0	 1	    1.09478	    2.04069	 220.0	 3	    1.11000	    0.95000;
	88	 1	 0.00	 0.00	 0.0	 0.0	 1	    1.09479	    2.04264	 220.0	 3	    1.11000	    0.95000;
	89	 1	 0.00	 0.00	 0.0	 0.0	 1	    1.09908	    2.08523	 220.0	 3	    1.11000	    0.95000;
	90	 1	 0.00	 0.00	 0.0	 0.0	 1	    1.10228	    3.76460	 220.0	 3	    1.11000	    0.95000;
	91	 1	 0.00	 0.00	 0.0	 0.0	 1	    1.09822	    3.16209	 220.0	 3	    1.11000	    0.95000;
	92	 1	 0.00	 0.00	 0.0	 0.0	 1	    1.04084	    0.48008	 400.0	 3	    1.05000	    0.95000;
	93	 2	 10.42	 16.39	 0.0	 0.0	 1	    1.10785	    4.23806	 220.0	 3	    1.11000	    0.95000;
	94	 1	 0.00	 0.00	 0.0	 0.0	 1	    1.10782	    4.22141	 220.0	 3	    1.11000	    0.95000;
	95	 2	 7.18	 8.15	 0.0	 0.0	 1	    1.10178	    2.41570	 220.0	 3	    1.11000	    0.95000;
	96	 1	 0.00	 0.00	 0.0	 0.0	 1	    1.10179	    2.41170	 220.0	 3	    1.11000	    0.95000;
	97	 2	 9.06	 5.26	 0.0	 0.0	 1	    1.08595	    1.33586	 220.0	 3	    1.11000	    0.95000;
	98	 1	 0.00	 0.00	 0.0	 0.0	 1	    1.02119	    1.53186	 400.0	 3	    1.05000	    0.95000;
	99	 1	 0.00	 0.00	 0.0	 0.0	 1	    1.02127	    1.53862	 400.0	 3	    1.05000	    0.95000;
	100	 1	 0.00	 0.00	 0.0	 0.0	 1	    1.04335	    1.28863	 400.0	 3	    1.05000	    0.95000;
	101	 1	 0.00	 0.00	 0.0	 0.0	 1	    1.04334	    1.28706	 400.0	 3	    1.05000	    0.95000;
	102	 1	 0.00	 0.00	 0.0	 0.0	 1	    1.09937	    1.90276	 220.0	 3	    1.11000	    0.95000;
	103	 2	 18.86	 23.76	 0.0	 0.0	 1	    1.11000	    4.28779	 220.0	 3	    1.11000	    0.95000;
	104	 2	 35.12	 46.11	 0.0	 0.0	 1	    1.11000	    4.28583	 220.0	 3	    1.11000	    0.95000;
	105	 2	 35.22	 62.95	 0.0	 0.0	 1	    1.04293	    0.07533	 400.0	 3	    1.05000	    0.95000;
	106	 1	 0.00	 0.00	 0.0	 0.0	 1	    1.04292	    0.07493	 400.0	 3	    1.05000	    0.95000;
	107	 1	 0.00	 0.00	 0.0	 0.0	 1	    1.08508	   -0.02991	 220.0	 3	    1.11000	    0.95000;
	108	 1	 0.00	 0.00	 0.0	 0.0	 1	    1.08753	    0.16274	 220.0	 3	    1.11000	    0.95000;
	109	 2	 1.04	 22.36	 0.0	 0.0	 1	    1.11000	    5.92140	 220.0	 3	    1.11000	    0.95000;
	110	 2	 1.04	 22.18	 0.0	 0.0	 1	    1.10980	    5.74182	 220.0	 3	    1.11000	    0.95000;
	111	 2	 27.62	 18.00	 0.0	 0.0	 1	    1.09032	   -2.26994	 220.0	 4	    1.11000	    0.95000;
	112	 1	 0.00	 0.00	 0.0	 0.0	 1	    1.09028	   -2.27674	 220.0	 4	    1.11000	    0.95000;
	113	 1	 0.00	 0.00	 0.0	 0.0	 1	    1.06340	   -0.34247	 220.0	 4	    1.11000	    0.95000;
	114	 1	 0.00	 0.00	 0.0	 0.0	 1	    1.07495	    0.81742	 220.0	 4	    1.11000	    0.95000;
	115	 1	 0.00	 0.00	 0.0	 0.0	 1	    0.99110	    1.90620	 400.0	 4	    1.05000	    0.95000;
	116	 1	 0.00	 0.00	 0.0	 0.0	 1	    0.99118	    1.90315	 400.0	 4	    1.05000	    0.95000;
	117	 1	 0.00	 0.00	 0.0	 0.0	 1	    1.08452	   -5.19802	 220.0	 4	    1.11000	    0.95000;
	118	 1	 0.00	 0.00	 0.0	 0.0	 1	    1.06602	   -3.25223	 220.0	 4	    1.11000	    0.95000;
	119	 1	 0.00	 0.00	 0.0	 0.0	 1	    1.06602	   -3.25223	 220.0	 4	    1.11000	    0.95000;
	120	 1	 0.00	 0.00	 0.0	 0.0	 1	    1.05869	   -4.80200	 220.0	 4	    1.11000	    0.95000;
	121	 1	 0.00	 0.00	 0.0	 0.0	 1	    1.06819	    0.06344	 220.0	 4	    1.11000	    0.95000;
	122	 1	 0.00	 0.00	 0.0	 0.0	 1	    1.06819	    0.06344	 220.0	 4	    1.11000	    0.95000;
	123	 2	 5.73	 7.00	 0.0	 0.0	 1	    1.08807	   -3.70147	 220.0	 4	    1.11000	    0.95000;
	124	 2	 9.16	 17.00	 0.0	 0.0	 1	    1.08809	   -3.70365	 220.0	 4	    1.11000	    0.95000;
	125	 2	 37.22	 18.30	 0.0	 0.0	 1	    1.10127	   -2.74594	 220.0	 4	    1.11000	    0.95000;
	126	 1	 26.36	 15.90	 0.0	 0.0	 1	    1.10108	   -2.75147	 220.0	 4	    1.11000	    0.95000;
	127	 2	 26.81	 15.30	 0.0	 0.0	 1	    0.99854	   -3.27588	 400.0	 4	    1.05000	    0.95000;
	128	 1	 0.00	 0.00	 0.0	 0.0	 1	    0.99855	   -3.28029	 400.0	 4	    1.05000	    0.95000;
	129	 1	 0.00	 0.00	 0.0	 0.0	 1	    1.05767	   -5.85358	 220.0	 4	    1.11000	    0.95000;
	130	 1	 0.00	 0.00	 0.0	 0.0	 1	    1.04258	   -4.24114	 220.0	 4	    1.11000	    0.95000;
	131	 2	 71.60	 70.00	 0.0	 0.0	 1	    1.09832	    4.03266	 220.0	 4	    1.11000	    0.95000;
	132	 2	 34.41	 45.00	 0.0	 0.0	 1	    1.09861	    4.02858	 220.0	 4	    1.11000	    0.95000;
	133	 1	 0.00	 0.00	 0.0	 0.0	 1	    0.98771	    4.85106	 400.0	 4	    1.05000	    0.95000;
	134	 1	 0.00	 0.00	 0.0	 0.0	 1	    0.98768	    4.85637	 400.0	 4	    1.05000	    0.95000;
	135	 1	 0.00	 0.00	 0.0	 0.0	 1	    1.06516	   -4.07684	 220.0	 4	    1.11000	    0.95000;
	136	 1	 0.00	 0.00	 0.0	 0.0	 1	    1.06516	   -4.07684	 220.0	 4	    1.11000	    0.95000;
	137	 1	 0.00	 0.00	 0.0	 0.0	 1	    1.01375	    2.53565	 400.0	 4	    1.05000	    0.95000;
	138	 1	 0.00	 0.00	 0.0	 0.0	 1	    1.01375	    2.53565	 400.0	 4	    1.05000	    0.95000;
	139	 2	 34.61	 22.60	 0.0	 0.0	 1	    1.08748	   -3.91165	 220.0	 4	    1.11000	    0.95000;
	140	 2	 30.48	 19.60	 0.0	 0.0	 1	    1.08749	   -3.91098	 220.0	 4	    1.11000	    0.95000;
	141	 1	 0.00	 0.00	 0.0	 0.0	 1	    1.07061	   -9.04756	 220.0	 4	    1.11000	    0.95000;
	142	 1	 0.00	 0.00	 0.0	 0.0	 1	    1.06331	   -3.31465	 220.0	 4	    1.11000	    0.95000;
	143	 1	 0.00	 0.00	 0.0	 0.0	 1	    1.08265	   -5.66311	 220.0	 4	    1.11000	    0.95000;
	144	 1	 0.00	 0.00	 0.0	 0.0	 1	    1.08260	   -5.66523	 220.0	 4	    1.11000	    0.95000;
	145	 1	 0.00	 0.00	 0.0	 0.0	 1	    0.97601	   -5.13092	 400.0	 4	    1.05000	    0.95000;
	146	 1	 0.00	 0.00	 0.0	 0.0	 1	    0.97601	   -5.13092	 400.0	 4	    1.05000	    0.95000;
	147	 1	 0.00	 0.00	 0.0	 0.0	 1	    1.05020	   -3.46077	 220.0	 4	    1.11000	    0.95000;
	148	 1	 0.00	 0.00	 0.0	 0.0	 1	    1.05026	   -3.45666	 220.0	 4	    1.11000	    0.95000;
	149	 1	 0.00	 0.00	 0.0	 0.0	 1	    1.08005	   -5.74104	 220.0	 4	    1.11000	    0.95000;
	150	 1	 0.00	 0.00	 0.0	 0.0	 1	    1.06725	    0.14287	 220.0	 4	    1.11000	    0.95000;
	151	 1	 0.00	 0.00	 0.0	 0.0	 1	    1.06725	    0.14082	 220.0	 4	    1.11000	    0.95000;
	152	 1	 0.00	 0.00	 0.0	 0.0	 1	    1.06984	    0.31159	 220.0	 4	    1.11000	    0.95000;
	153	 1	 0.00	 0.00	 0.0	 0.0	 1	    1.06984	    0.31159	 220.0	 4	    1.11000	    0.95000;
	154	 1	 0.00	 0.00	 0.0	 0.0	 1	    1.03453	   -4.82926	 220.0	 4	    1.11000	    0.95000;
	155	 1	 0.00	 0.00	 0.0	 0.0	 1	    1.07718	   -6.31320	 220.0	 5	    1.11000	    0.95000;
	156	 1	 0.00	 0.00	 0.0	 0.0	 1	    1.11000	   -5.83232	 220.0	 5	    1.11000	    0.95000;
	157	 1	 0.00	 0.00	 0.0	 0.0	 1	    1.01241	   -5.18656	 400.0	 5	    1.05000	    0.95000;
	158	 1	 0.00	 0.00	 0.0	 0.0	 1	    1.01243	   -5.18533	 400.0	 5	    1.05000	    0.95000;
	159	 1	 0.00	 0.00	 0.0	 0.0	 1	    1.02740	   -5.44150	 400.0	 5	    1.05000	    0.95000;
	160	 1	 0.00	 0.00	 0.0	 0.0	 1	    1.02742	   -5.44462	 400.0	 5	    1.05000	    0.95000;
	161	 1	 0.00	 0.00	 0.0	 0.0	 1	    1.08109	   -7.31478	 220.0	 5	    1.11000	    0.95000;
	162	 1	 0.00	 0.00	 0.0	 0.0	 1	    1.08109	   -7.31394	 220.0	 5	    1.11000	    0.95000;
	163	 1	 0.00	 0.00	 0.0	 0.0	 1	    1.11000	   -5.21250	 220.0	 5	    1.11000	    0.95000;
	164	 1	 0.00	 0.00	 0.0	 0.0	 1	    1.10998	   -5.21532	 220.0	 5	    1.11000	    0.95000;
	165	 1	 0.00	 0.00	 0.0	 0.0	 1	    1.01990	   -5.76036	 400.0	 5	    1.05000	    0.95000;
	166	 1	 0.00	 0.00	 0.0	 0.0	 1	    1.08739	   -5.91160	 220.0	 5	    1.11000	    0.95000;
	167	 1	 0.00	 0.00	 0.0	 0.0	 1	    1.08743	   -5.90939	 220.0	 5	    1.11000	    0.95000;
	168	 1	 0.00	 0.00	 0.0	 0.0	 1	    1.03169	   -7.49794	 400.0	 5	    1.05000	    0.95000;
	169	 1	 0.00	 0.00	 0.0	 0.0	 1	    1.03169	   -7.50604	 400.0	 5	    1.05000	    0.95000;
	170	 1	 0.00	 0.00	 0.0	 0.0	 1	    1.06177	  -11.59720	 220.0	 5	    1.11000	    0.95000;
	171	 1	 0.00	 0.00	 0.0	 0.0	 1	    1.06180	  -11.59852	 220.0	 5	    1.11000	    0.95000;
	172	 1	 0.00	 0.00	 0.0	 0.0	 1	    1.08500	   -6.81037	 220.0	 5	    1.11000	    0.95000;
	173	 1	 0.00	 0.00	 0.0	 0.0	 1	    1.08496	   -6.81245	 220.0	 5	    1.11000	    0.95000;
	174	 1	 0.00	 0.00	 0.0	 0.0	 1	    1.07101	   -7.12991	 220.0	 5	    1.11000	    0.95000;
	175	 1	 0.00	 0.00	 0.0	 0.0	 1	    1.07101	   -7.13059	 220.0	 5	    1.11000	    0.95000;
	176	 2	 0.00	 40.00	 0.0	 0.0	 1	    1.01505	   -4.08832	 400.0	 5	    1.05000	    0.95000;
	177	 2	 0.00	 40.00	 0.0	 0.0	 1	    1.01519	   -4.09465	 400.0	 5	    1.05000	    0.95000;
	178	 1	 0.00	 0.00	 0.0	 0.0	 1	    1.09596	   -6.49869	 220.0	 5	    1.11000	    0.95000;
	179	 1	 0.00	 0.00	 0.0	 0.0	 1	    1.09599	   -6.49685	 220.0	 5	    1.11000	    0.95000;
	180	 2	 354.33	 49.60	 0.0	 0.0	 2	    1.03899	   -2.69186	 400.0	 6	    1.05000	    0.95000;
	181	 2	 0.00	 0.00	 0.0	 0.0	 3	    1.11000	    6.15318	 220.0	 6	    1.11000	    0.95000;
	182	 2	 0.00	 0.00	 0.0	 0.0	 5	    0.98772	    5.43586	 400.0	 6	    1.05000	    0.95000;
	183	 1	 150.00	 0.00	 0.0	 0.0	 3	    1.05000	   -0.65894	 400.0	 6	    1.05000	    0.95000;
	184	 2	 330.86	 50.30	 0.0	 0.0	 2	    1.09718	    0.38427	 220.0	 6	    1.11000	    0.95000;
	185	 2	 377.88	 36.70	 0.0	 0.0	 2	    1.03810	   -3.47578	 400.0	 6	    1.05000	    0.95000;
	186	 2	 34.75	 1.00	 0.0	 0.0	 5	    1.11000	   -2.92732	 220.0	 6	    1.11000	    0.95000;
	187	 1	 7.42	 1.50	 0.0	 0.0	 1	    1.06846	  -10.13715	 110.0	 1	    1.12000	    0.95000;
	188	 1	 7.96	 1.00	 0.0	 0.0	 1	    1.02014	  -20.92340	 110.0	 1	    1.12000	    0.95000;
	189	 1	 10.19	 8.70	 0.0	 0.0	 1	    1.01697	  -14.62415	 110.0	 1	    1.12000	    0.95000;
	190	 1	 6.38	 1.50	 0.0	 0.0	 1	    1.10282	   -4.63412	 110.0	 1	    1.12000	    0.95000;
	191	 1	 6.38	 1.60	 0.0	 0.0	 1	    1.09134	   -6.45020	 110.0	 1	    1.12000	    0.95000;
	192	 2	 31.86	 12.00	 0.0	 0.0	 1	    1.12000	   -5.41093	 110.0	 1	    1.12000	    0.95000;
	193	 1	 15.93	 3.00	 0.0	 0.0	 1	    1.11882	   -5.68732	 110.0	 1	    1.12000	    0.95000;
	194	 1	 0.00	 0.00	 0.0	 0.0	 1	    1.11727	   -5.96398	 110.0	 1	    1.12000	    0.95000;
	195	 1	 8.49	 2.00	 0.0	 0.0	 1	    1.09662	   -9.88438	 110.0	 1	    1.12000	    0.95000;
	196	 2	 7.21	 1.50	 0.0	 0.0	 1	    1.04348	   -9.57059	 110.0	 1	    1.12000	    0.95000;
	197	 1	 7.21	 1.50	 0.0	 0.0	 1	    1.06951	  -11.73938	 110.0	 1	    1.12000	    0.95000;
	198	 2	 12.85	 1.70	 0.0	 0.0	 1	    1.09362	  -10.42368	 110.0	 1	    1.12000	    0.95000;
	199	 1	 1.49	 0.50	 0.0	 0.0	 1	    1.10398	   -6.70915	 110.0	 1	    1.12000	    0.95000;
	200	 1	 1.13	 0.50	 0.0	 0.0	 1	    1.10148	   -9.67491	 110.0	 1	    1.12000	    0.95000;
	201	 1	 5.85	 0.50	 0.0	 0.0	 1	    1.06802	  -15.79614	 110.0	 1	    1.12000	    0.95000;
	202	 1	 19.12	 2.00	 0.0	 0.0	 1	    1.09510	   -8.19545	 110.0	 1	    1.12000	    0.95000;
	203	 1	 11.57	 1.60	 0.0	 0.0	 1	    1.09059	  -10.18231	 110.0	 1	    1.12000	    0.95000;
	204	 1	 0.00	 0.00	 0.0	 0.0	 1	    1.11787	   -7.17816	 110.0	 1	    1.12000	    0.95000;
	205	 2	 7.21	 2.00	 0.0	 0.0	 1	    1.12000	   -5.94104	 110.0	 1	    1.12000	    0.95000;
	206	 1	 11.68	 1.00	 0.0	 0.0	 1	    1.09555	  -10.10411	 110.0	 1	    1.12000	    0.95000;
	207	 1	 7.63	 1.60	 0.0	 0.0	 1	    1.09227	   -6.18893	 110.0	 1	    1.12000	    0.95000;
	208	 1	 -7.32	 -4.50	 0.0	 0.0	 1	    1.09535	   -5.54041	 110.0	 1	    1.12000	    0.95000;
	209	 1	 9.76	 0.80	 0.0	 0.0	 1	    1.08020	  -12.92318	 110.0	 1	    1.12000	    0.95000;
	210	 1	 15.83	 4.40	 0.0	 0.0	 1	    1.11771	   -6.83685	 110.0	 1	    1.12000	    0.95000;
	211	 1	 9.12	 0.20	 0.0	 0.0	 1	    1.07890	  -13.20263	 110.0	 1	    1.12000	    0.95000;
	212	 1	 10.61	 1.50	 0.0	 0.0	 1	    1.07462	  -12.94958	 110.0	 1	    1.12000	    0.95000;
	213	 2	 -2.04	 -1.00	 0.0	 0.0	 1	    1.08262	  -12.69538	 110.0	 1	    1.12000	    0.95000;
	214	 1	 12.53	 0.50	 0.0	 0.0	 1	    1.07760	  -12.49071	 110.0	 1	    1.12000	    0.95000;
	215	 1	 7.21	 2.00	 0.0	 0.0	 1	    1.11640	   -6.51892	 110.0	 1	    1.12000	    0.95000;
	216	 1	 9.23	 0.50	 0.0	 0.0	 1	    1.10734	   -3.14975	 110.0	 1	    1.12000	    0.95000;
	217	 1	 2.02	 0.40	 0.0	 0.0	 1	    1.09464	  -11.38280	 110.0	 1	    1.12000	    0.95000;
	218	 1	 12.74	 1.50	 0.0	 0.0	 1	    1.05256	  -17.77276	 110.0	 1	    1.12000	    0.95000;
	219	 1	 2.66	 0.50	 0.0	 0.0	 1	    1.06806	  -16.35735	 110.0	 1	    1.12000	    0.95000;
	220	 1	 2.66	 0.50	 0.0	 0.0	 1	    1.04672	  -17.76534	 110.0	 1	    1.12000	    0.95000;
	221	 1	 4.25	 0.50	 0.0	 0.0	 1	    0.99731	  -23.71012	 110.0	 1	    1.12000	    0.95000;
	222	 1	 6.81	 0.40	 0.0	 0.0	 1	    1.10063	   -9.07193	 110.0	 1	    1.12000	    0.95000;
	223	 1	 19.44	 4.00	 0.0	 0.0	 1	    1.07645	   -3.24726	 110.0	 1	    1.12000	    0.95000;
	224	 1	 20.71	 2.50	 0.0	 0.0	 1	    1.09346	  -10.24445	 110.0	 1	    1.12000	    0.95000;
	225	 1	 18.04	 2.00	 0.0	 0.0	 1	    1.04836	  -18.97169	 110.0	 1	    1.12000	    0.95000;
	226	 1	 25.48	 1.50	 0.0	 0.0	 1	    1.07148	  -14.77826	 110.0	 1	    1.12000	    0.95000;
	227	 1	 5.85	 1.00	 0.0	 0.0	 1	    1.07136	  -15.17561	 110.0	 1	    1.12000	    0.95000;
	228	 1	 11.89	 1.10	 0.0	 0.0	 1	    1.09069	   -6.91883	 110.0	 1	    1.12000	    0.95000;
	229	 1	 11.47	 2.70	 0.0	 0.0	 1	    1.10523	   -8.39703	 110.0	 1	    1.12000	    0.95000;
	230	 1	 7.96	 1.00	 0.0	 0.0	 1	    0.99323	  -24.43059	 110.0	 1	    1.12000	    0.95000;
	231	 1	 8.28	 1.10	 0.0	 0.0	 1	    1.10750	   -8.35248	 110.0	 1	    1.12000	    0.95000;
	232	 1	 8.28	 1.10	 0.0	 0.0	 1	    1.07226	   -9.09723	 110.0	 1	    1.12000	    0.95000;
	233	 1	 1.92	 0.80	 0.0	 0.0	 1	    1.07566	  -13.53883	 110.0	 1	    1.12000	    0.95000;
	234	 1	 34.89	 28.00	 0.0	 0.0	 1	    1.09082	   -5.86412	 110.0	 1	    1.12000	    0.95000;
	235	 1	 35.20	 28.00	 0.0	 0.0	 1	    1.09024	   -4.06848	 110.0	 1	    1.12000	    0.95000;
	236	 1	 1.06	 0.50	 0.0	 0.0	 1	    1.10038	   -9.65706	 110.0	 1	    1.12000	    0.95000;
	237	 1	 14.54	 1.70	 0.0	 0.0	 1	    1.10703	   -5.90226	 110.0	 1	    1.12000	    0.95000;
	238	 1	 10.41	 1.00	 0.0	 0.0	 1	    1.10335	   -8.57657	 110.0	 1	    1.12000	    0.95000;
	239	 1	 15.93	 1.50	 0.0	 0.0	 1	    1.09724	   -8.08101	 110.0	 1	    1.12000	    0.95000;
	240	 1	 11.68	 1.50	 0.0	 0.0	 1	    1.00097	  -23.00519	 110.0	 1	    1.12000	    0.95000;
	241	 1	 10.61	 3.00	 0.0	 0.0	 1	    1.08693	  -11.05265	 110.0	 1	    1.12000	    0.95000;
	242	 1	 1.27	 0.10	 0.0	 0.0	 1	    1.08282	  -10.71974	 110.0	 1	    1.12000	    0.95000;
	243	 1	 0.00	 0.00	 0.0	 0.0	 1	    1.11618	   -7.35776	 110.0	 1	    1.12000	    0.95000;
	244	 1	 1.02	 0.00	 0.0	 0.0	 1	    1.11203	   -8.37214	 110.0	 1	    1.12000	    0.95000;
	245	 1	 12.64	 5.40	 0.0	 0.0	 1	    1.11516	   -7.44354	 110.0	 1	    1.12000	    0.95000;
	246	 1	 -8.14	 -3.60	 0.0	 0.0	 1	    1.12000	   -6.33265	 110.0	 1	    1.12000	    0.95000;
	247	 1	 11.68	 1.50	 0.0	 0.0	 1	    1.07338	  -11.42512	 110.0	 1	    1.12000	    0.95000;
	248	 1	 3.19	 0.50	 0.0	 0.0	 1	    1.10458	   -8.29337	 110.0	 1	    1.12000	    0.95000;
	249	 1	 9.16	 0.00	 0.0	 0.0	 1	    1.08632	  -12.34511	 110.0	 1	    1.12000	    0.95000;
	250	 1	 28.89	 3.00	 0.0	 0.0	 1	    1.10122	   -9.55085	 110.0	 1	    1.12000	    0.95000;
	251	 1	 22.29	 4.00	 0.0	 0.0	 1	    1.08889	   -4.30821	 110.0	 1	    1.12000	    0.95000;
	252	 1	 22.29	 4.00	 0.0	 0.0	 1	    1.08553	   -6.72557	 110.0	 1	    1.12000	    0.95000;
	253	 1	 15.50	 4.30	 0.0	 0.0	 1	    1.11355	   -7.44907	 110.0	 1	    1.12000	    0.95000;
	254	 1	 20.71	 3.50	 0.0	 0.0	 1	    1.10047	   -7.75310	 110.0	 1	    1.12000	    0.95000;
	255	 1	 10.61	 1.00	 0.0	 0.0	 1	    1.06913	  -15.00431	 110.0	 1	    1.12000	    0.95000;
	256	 1	 5.61	 0.00	 0.0	 0.0	 1	    1.09912	   -9.15693	 110.0	 1	    1.12000	    0.95000;
	257	 1	 7.42	 0.20	 0.0	 0.0	 1	    1.07898	  -12.09863	 110.0	 1	    1.12000	    0.95000;
	258	 1	 4.25	 0.30	 0.0	 0.0	 1	    1.07891	   -9.62931	 110.0	 1	    1.12000	    0.95000;
	259	 1	 21.76	 4.20	 0.0	 0.0	 1	    1.09838	   -9.84290	 110.0	 1	    1.12000	    0.95000;
	260	 1	 11.15	 1.50	 0.0	 0.0	 1	    1.11075	   -7.88029	 110.0	 1	    1.12000	    0.95000;
	261	 1	 8.28	 2.00	 0.0	 0.0	 1	    1.11837	   -6.78268	 110.0	 1	    1.12000	    0.95000;
	262	 1	 0.20	 0.00	 0.0	 0.0	 1	    1.09978	   -9.21554	 110.0	 1	    1.12000	    0.95000;
	263	 1	 5.53	 1.00	 0.0	 0.0	 1	    1.06142	  -10.15145	 110.0	 1	    1.12000	    0.95000;
	264	 2	 12.74	 1.00	 0.0	 0.0	 1	    1.10987	   -5.91773	 110.0	 1	    1.12000	    0.95000;
	265	 1	 12.74	 1.00	 0.0	 0.0	 1	    1.07978	   -9.97687	 110.0	 1	    1.12000	    0.95000;
	266	 1	 8.70	 1.60	 0.0	 0.0	 1	    1.09153	   -8.19021	 110.0	 1	    1.12000	    0.95000;
	267	 1	 10.82	 3.00	 0.0	 0.0	 1	    1.11645	   -7.25998	 110.0	 1	    1.12000	    0.95000;
	268	 1	 15.50	 3.70	 0.0	 0.0	 1	    1.11861	   -6.03722	 110.0	 1	    1.12000	    0.95000;
	269	 2	 15.93	 4.00	 0.0	 0.0	 1	    1.09754	   -9.02633	 110.0	 1	    1.12000	    0.95000;
	270	 1	 3.83	 0.50	 0.0	 0.0	 1	    1.11924	   -6.45239	 110.0	 1	    1.12000	    0.95000;
	271	 1	 3.83	 0.50	 0.0	 0.0	 1	    1.09164	   -7.80764	 110.0	 1	    1.12000	    0.95000;
	272	 1	 9.65	 3.00	 0.0	 0.0	 1	    1.11847	   -6.76898	 110.0	 1	    1.12000	    0.95000;
	273	 1	 13.48	 3.70	 0.0	 0.0	 1	    1.11624	   -6.53552	 110.0	 1	    1.12000	    0.95000;
	274	 1	 26.76	 7.40	 0.0	 0.0	 1	    1.11294	   -7.66874	 110.0	 1	    1.12000	    0.95000;
	275	 1	 24.21	 6.70	 0.0	 0.0	 1	    1.11767	   -7.02541	 110.0	 1	    1.12000	    0.95000;
	276	 1	 14.87	 5.10	 0.0	 0.0	 1	    1.11005	   -7.97171	 110.0	 1	    1.12000	    0.95000;
	277	 2	 54.36	 20.40	 0.0	 0.0	 1	    1.11463	   -7.71755	 110.0	 1	    1.12000	    0.95000;
	278	 2	 26.01	 9.70	 0.0	 0.0	 1	    1.12000	   -6.74825	 110.0	 1	    1.12000	    0.95000;
	279	 2	 26.01	 9.70	 0.0	 0.0	 1	    1.11900	   -6.28452	 110.0	 1	    1.12000	    0.95000;
	280	 1	 0.00	 0.00	 0.0	 0.0	 1	    1.11692	   -7.17482	 110.0	 1	    1.12000	    0.95000;
	281	 2	 31.97	 11.90	 0.0	 0.0	 1	    1.11504	   -7.58631	 110.0	 1	    1.12000	    0.95000;
	282	 2	 13.70	 5.10	 0.0	 0.0	 1	    1.11937	   -6.73672	 110.0	 1	    1.12000	    0.95000;
	283	 1	 17.75	 0.20	 0.0	 0.0	 1	    1.08995	   -9.48474	 110.0	 1	    1.12000	    0.95000;
	284	 1	 2.66	 0.50	 0.0	 0.0	 1	    1.10569	   -7.46343	 110.0	 1	    1.12000	    0.95000;
	285	 1	 8.49	 1.50	 0.0	 0.0	 1	    1.08502	  -11.84652	 110.0	 1	    1.12000	    0.95000;
	286	 1	 31.02	 4.10	 0.0	 0.0	 1	    1.08195	  -12.46896	 110.0	 1	    1.12000	    0.95000;
	287	 1	 12.74	 4.00	 0.0	 0.0	 1	    1.08239	  -10.92938	 110.0	 1	    1.12000	    0.95000;
	288	 1	 13.70	 3.80	 0.0	 0.0	 1	    1.11303	   -7.58747	 110.0	 1	    1.12000	    0.95000;
	289	 2	 22.19	 6.10	 0.0	 0.0	 1	    1.11339	   -7.85735	 110.0	 1	    1.12000	    0.95000;
	290	 1	 18.06	 3.00	 0.0	 0.0	 1	    1.08299	  -12.86575	 110.0	 1	    1.12000	    0.95000;
	291	 1	 17.53	 5.40	 0.0	 0.0	 1	    1.11860	   -6.79237	 110.0	 1	    1.12000	    0.95000;
	292	 1	 18.06	 5.00	 0.0	 0.0	 1	    1.11310	   -7.84061	 110.0	 1	    1.12000	    0.95000;
	293	 1	 7.75	 2.10	 0.0	 0.0	 1	    1.11423	   -7.68059	 110.0	 1	    1.12000	    0.95000;
	294	 2	 15.93	 3.00	 0.0	 0.0	 1	    1.08551	  -12.58255	 110.0	 1	    1.12000	    0.95000;
	295	 1	 22.19	 3.40	 0.0	 0.0	 1	    1.09668	   -8.23179	 110.0	 1	    1.12000	    0.95000;
	296	 1	 18.38	 5.10	 0.0	 0.0	 1	    1.11423	   -7.67814	 110.0	 1	    1.12000	    0.95000;
	297	 1	 8.91	 2.00	 0.0	 0.0	 1	    1.10053	   -8.39326	 110.0	 1	    1.12000	    0.95000;
	298	 1	 7.32	 1.60	 0.0	 0.0	 1	    1.09890	   -8.54250	 110.0	 1	    1.12000	    0.95000;
	299	 1	 50.11	 13.80	 0.0	 0.0	 1	    1.11014	   -7.96620	 110.0	 1	    1.12000	    0.95000;
	300	 1	 22.29	 9.00	 0.0	 0.0	 1	    1.06382	   -4.39000	 110.0	 1	    1.12000	    0.95000;
	301	 1	 6.49	 1.30	 0.0	 0.0	 1	    1.10204	   -8.63271	 110.0	 1	    1.12000	    0.95000;
	302	 1	 6.38	 1.30	 0.0	 0.0	 1	    1.09579	   -8.29630	 110.0	 1	    1.12000	    0.95000;
	303	 1	 6.59	 0.50	 0.0	 0.0	 1	    1.06799	  -11.72020	 110.0	 1	    1.12000	    0.95000;
	304	 1	 18.59	 5.10	 0.0	 0.0	 1	    1.11646	   -6.53846	 110.0	 1	    1.12000	    0.95000;
	305	 1	 7.85	 1.10	 0.0	 0.0	 1	    1.07175	  -13.52135	 110.0	 1	    1.12000	    0.95000;
	306	 1	 22.29	 4.00	 0.0	 0.0	 1	    1.11554	   -7.29023	 110.0	 1	    1.12000	    0.95000;
	307	 1	 19.12	 4.00	 0.0	 0.0	 1	    1.07607	  -12.16989	 110.0	 1	    1.12000	    0.95000;
	308	 1	 5.10	 0.00	 0.0	 0.0	 1	    1.10992	   -6.90828	 110.0	 1	    1.12000	    0.95000;
	309	 1	 0.00	 0.00	 0.0	 0.0	 1	    1.12000	   -7.69310	 110.0	 1	    1.12000	    0.95000;
	310	 1	 0.00	 0.00	 0.0	 0.0	 1	    1.08628	   -8.35568	 110.0	 1	    1.12000	    0.95000;
	311	 1	 33.78	 5.70	 0.0	 0.0	 1	    1.06702	   -8.38821	 110.0	 1	    1.12000	    0.95000;
	312	 1	 0.00	 0.00	 0.0	 0.0	 1	    1.06705	   -8.38903	 110.0	 1	    1.12000	    0.95000;
	313	 1	 7.42	 0.50	 0.0	 0.0	 1	    1.05810	  -18.11615	 110.0	 1	    1.12000	    0.95000;
	314	 2	 8.06	 1.50	 0.0	 0.0	 1	    1.08248	  -12.60709	 110.0	 1	    1.12000	    0.95000;
	315	 1	 9.47	 0.00	 0.0	 0.0	 1	    1.07234	  -13.77554	 110.0	 1	    1.12000	    0.95000;
	316	 1	 16.89	 4.00	 0.0	 0.0	 1	    1.11486	   -7.24502	 110.0	 1	    1.12000	    0.95000;