%%%%%%%%%%%%%%%%%%%%%%%%%%%%%%%%%%%%%%%%%%%%%%%%%%%%%%%%%%%%%%%%%%%%%%%%%%%
%%%%                                                                  %%%%%
%%%%    IEEE PES Power Grid Library - Optimal Power Flow - v17.07     %%%%%
%%%%          (https://github.com/power-grid-lib/pglib-opf)           %%%%%
%%%%             Benchmark Group - Active Power Increase              %%%%%
%%%%                         27 - June - 2017                         %%%%%
%%%%                                                                  %%%%%
%%%%%%%%%%%%%%%%%%%%%%%%%%%%%%%%%%%%%%%%%%%%%%%%%%%%%%%%%%%%%%%%%%%%%%%%%%%
function mpc = pglib_opf_case30_ieee__api
mpc.version = '2';
mpc.baseMVA = 100.0;

%% bus data
%	bus_i	type	Pd	Qd	Gs	Bs	area	Vm	Va	baseKV	zone	Vmax	Vmin
mpc.bus = [
	1	 3	 0.00	 0.00	 0.0	 0.0	 1	    1.06000	   -0.00000	 132.0	 1	    1.06000	    0.94000;
	2	 2	 36.08	 12.70	 0.0	 0.0	 1	    1.02441	   -3.89126	 132.0	 1	    1.06000	    0.94000;
	3	 1	 3.99	 1.20	 0.0	 0.0	 1	    1.00985	  -10.54451	 132.0	 1	    1.06000	    0.94000;
	4	 1	 12.64	 1.60	 0.0	 0.0	 1	    1.00018	  -13.01805	 132.0	 1	    1.06000	    0.94000;
	5	 2	 156.64	 19.00	 0.0	 0.0	 1	    0.96620	  -20.12941	 132.0	 1	    1.06000	    0.94000;
	6	 1	 0.00	 0.00	 0.0	 0.0	 1	    1.01420	  -16.06815	 132.0	 1	    1.06000	    0.94000;
	7	 1	 37.91	 10.90	 0.0	 0.0	 1	    0.98390	  -18.69869	 132.0	 1	    1.06000	    0.94000;
	8	 2	 49.89	 30.00	 0.0	 0.0	 1	    1.06000	  -18.02838	 132.0	 1	    1.06000	    0.94000;
	9	 1	 0.00	 0.00	 0.0	 0.0	 1	    1.03473	  -21.29952	 1.0	 1	    1.06000	    0.94000;
	10	 1	 9.64	 2.00	 0.0	 19.0	 1	    1.02365	  -24.09945	 33.0	 1	    1.06000	    0.94000;
	11	 2	 0.00	 0.00	 0.0	 0.0	 1	    1.06000	  -21.29952	 11.0	 1	    1.06000	    0.94000;
	12	 1	 18.62	 7.50	 0.0	 0.0	 1	    1.02349	  -22.56005	 33.0	 1	    1.06000	    0.94000;
	13	 2	 0.00	 0.00	 0.0	 0.0	 1	    1.02329	  -22.56005	 11.0	 1	    1.06000	    0.94000;
	14	 1	 10.31	 1.60	 0.0	 0.0	 1	    1.00424	  -24.23205	 33.0	 1	    1.06000	    0.94000;
	15	 1	 13.64	 2.50	 0.0	 0.0	 1	    1.00000	  -24.49312	 33.0	 1	    1.06000	    0.94000;
	16	 1	 5.82	 1.80	 0.0	 0.0	 1	    1.01311	  -23.78738	 33.0	 1	    1.06000	    0.94000;
	17	 1	 14.97	 5.80	 0.0	 0.0	 1	    1.01407	  -24.41205	 33.0	 1	    1.06000	    0.94000;
	18	 1	 5.32	 0.90	 0.0	 0.0	 1	    0.99060	  -25.68074	 33.0	 1	    1.06000	    0.94000;
	19	 1	 15.80	 3.40	 0.0	 0.0	 1	    0.98975	  -26.02224	 33.0	 1	    1.06000	    0.94000;
	20	 1	 3.66	 0.70	 0.0	 0.0	 1	    0.99708	  -25.64442	 33.0	 1	    1.06000	    0.94000;
	21	 1	 29.10	 11.20	 0.0	 0.0	 1	    1.00713	  -24.98343	 33.0	 1	    1.06000	    0.94000;
	22	 1	 0.00	 0.00	 0.0	 0.0	 1	    1.00778	  -24.94841	 33.0	 1	    1.06000	    0.94000;
	23	 1	 5.32	 1.60	 0.0	 0.0	 1	    0.99127	  -25.29805	 33.0	 1	    1.06000	    0.94000;
	24	 1	 14.47	 6.70	 0.0	 4.3	 1	    0.99131	  -25.66959	 33.0	 1	    1.06000	    0.94000;
	25	 1	 0.00	 0.00	 0.0	 0.0	 1	    0.99864	  -25.02879	 33.0	 1	    1.06000	    0.94000;
	26	 1	 5.82	 2.30	 0.0	 0.0	 1	    0.97433	  -25.98659	 33.0	 1	    1.06000	    0.94000;
	27	 1	 0.00	 0.00	 0.0	 0.0	 1	    1.01472	  -24.08318	 33.0	 1	    1.06000	    0.94000;
	28	 1	 0.00	 0.00	 0.0	 0.0	 1	    1.01665	  -17.26502	 132.0	 1	    1.06000	    0.94000;
	29	 1	 3.99	 0.90	 0.0	 0.0	 1	    0.98421	  -26.30583	 33.0	 1	    1.06000	    0.94000;
	30	 1	 17.63	 1.90	 0.0	 0.0	 1	    0.96599	  -27.89396	 33.0	 1	    1.06000	    0.94000;
];

%% generator data
%	bus	Pg	Qg	Qmax	Qmin	Vg	mBase	status	Pmax	Pmin	Pc1	Pc2	Qc1min	Qc1max	Qc2min	Qc2max	ramp_agc	ramp_10	ramp_30	ramp_q	apf
mpc.gen = [
	1	 257.614	 29.114	 176.0	 -176.0	 1.06	 100.0	 1	 351	 0.0	 0.0	 0.0	 0.0	 0.0	 0.0	 0.0	 0.0	 0.0	 0.0	 0.0	 0.0; % NG
	2	 255.134	 -22.633	 171.0	 -171.0	 1.02441	 100.0	 1	 342	 0.0	 0.0	 0.0	 0.0	 0.0	 0.0	 0.0	 0.0	 0.0	 0.0	 0.0	 0.0; % NG
	5	 0.0	 34.031	 40.0	 -40.0	 0.9662	 100.0	 1	 0	 0.0	 0.0	 0.0	 0.0	 0.0	 0.0	 0.0	 0.0	 0.0	 0.0	 0.0	 0.0; % SYNC
	8	 0.0	 181.446	 230.4	 -230.4	 1.06	 100.0	 1	 0	 0.0	 0.0	 0.0	 0.0	 0.0	 0.0	 0.0	 0.0	 0.0	 0.0	 0.0	 0.0; % SYNC
	11	 0.0	 12.88	 24.0	 -18.0	 1.06	 100.0	 1	 0	 0.0	 0.0	 0.0	 0.0	 0.0	 0.0	 0.0	 0.0	 0.0	 0.0	 0.0	 0.0; % SYNC
	13	 0.0	 -0.148	 24.0	 -6.0	 1.02329	 100.0	 1	 0	 0.0	 0.0	 0.0	 0.0	 0.0	 0.0	 0.0	 0.0	 0.0	 0.0	 0.0	 0.0; % SYNC
];

%% generator cost data
%	2	startup	shutdown	n	c(n-1)	...	c0
mpc.gencost = [
	2	 0.0	 0.0	 3	   0.000000	   1.061741	   0.000000; % NG
	2	 0.0	 0.0	 3	   0.000000	   1.006756	   0.000000; % NG
	2	 0.0	 0.0	 3	   0.000000	   0.000000	   0.000000; % SYNC
	2	 0.0	 0.0	 3	   0.000000	   0.000000	   0.000000; % SYNC
	2	 0.0	 0.0	 3	   0.000000	   0.000000	   0.000000; % SYNC
	2	 0.0	 0.0	 3	   0.000000	   0.000000	   0.000000; % SYNC
];

%% branch data
%	fbus	tbus	r	x	b	rateA	rateB	rateC	ratio	angle	status	angmin	angmax
mpc.branch = [
	1	 2	 0.0192	 0.0575	 0.0528	 138.0	 138.0	 138.0	 0.0	 0.0	 1	 -30.0	 30.0;
	1	 3	 0.0452	 0.1652	 0.0408	 152.0	 152.0	 152.0	 0.0	 0.0	 1	 -30.0	 30.0;
	2	 4	 0.057	 0.1737	 0.0368	 139.0	 139.0	 139.0	 0.0	 0.0	 1	 -30.0	 30.0;
	3	 4	 0.0132	 0.0379	 0.0084	 135.0	 135.0	 135.0	 0.0	 0.0	 1	 -30.0	 30.0;
	2	 5	 0.0472	 0.1983	 0.0418	 144.0	 144.0	 144.0	 0.0	 0.0	 1	 -30.0	 30.0;
	2	 6	 0.0581	 0.1763	 0.0374	 139.0	 139.0	 139.0	 0.0	 0.0	 1	 -30.0	 30.0;
	4	 6	 0.0119	 0.0414	 0.009	 148.0	 148.0	 148.0	 0.0	 0.0	 1	 -30.0	 30.0;
	5	 7	 0.046	 0.116	 0.0204	 127.0	 127.0	 127.0	 0.0	 0.0	 1	 -30.0	 30.0;
	6	 7	 0.0267	 0.082	 0.017	 140.0	 140.0	 140.0	 0.0	 0.0	 1	 -30.0	 30.0;
	6	 8	 0.012	 0.042	 0.009	 148.0	 148.0	 148.0	 0.0	 0.0	 1	 -30.0	 30.0;
	6	 9	 0.0	 0.208	 0.0	 142.0	 142.0	 142.0	 0.978	 0.0	 1	 -30.0	 30.0;
	6	 10	 0.0	 0.556	 0.0	 53.0	 53.0	 53.0	 0.969	 0.0	 1	 -30.0	 30.0;
	9	 11	 0.0	 0.208	 0.0	 142.0	 142.0	 142.0	 0.0	 0.0	 1	 -30.0	 30.0;
	9	 10	 0.0	 0.11	 0.0	 267.0	 267.0	 267.0	 0.0	 0.0	 1	 -30.0	 30.0;
	4	 12	 0.0	 0.256	 0.0	 115.0	 115.0	 115.0	 0.932	 0.0	 1	 -30.0	 30.0;
	12	 13	 0.0	 0.14	 0.0	 210.0	 210.0	 210.0	 0.0	 0.0	 1	 -30.0	 30.0;
	12	 14	 0.1231	 0.2559	 0.0	 29.0	 29.0	 29.0	 0.0	 0.0	 1	 -30.0	 30.0;
	12	 15	 0.0662	 0.1304	 0.0	 29.0	 29.0	 29.0	 0.0	 0.0	 1	 -30.0	 30.0;
	12	 16	 0.0945	 0.1987	 0.0	 30.0	 30.0	 30.0	 0.0	 0.0	 1	 -30.0	 30.0;
	14	 15	 0.221	 0.1997	 0.0	 20.0	 20.0	 20.0	 0.0	 0.0	 1	 -30.0	 30.0;
	16	 17	 0.0524	 0.1923	 0.0	 38.0	 38.0	 38.0	 0.0	 0.0	 1	 -30.0	 30.0;
	15	 18	 0.1073	 0.2185	 0.0	 29.0	 29.0	 29.0	 0.0	 0.0	 1	 -30.0	 30.0;
	18	 19	 0.0639	 0.1292	 0.0	 29.0	 29.0	 29.0	 0.0	 0.0	 1	 -30.0	 30.0;
	19	 20	 0.034	 0.068	 0.0	 29.0	 29.0	 29.0	 0.0	 0.0	 1	 -30.0	 30.0;
	10	 20	 0.0936	 0.209	 0.0	 30.0	 30.0	 30.0	 0.0	 0.0	 1	 -30.0	 30.0;
	10	 17	 0.0324	 0.0845	 0.0	 33.0	 33.0	 33.0	 0.0	 0.0	 1	 -30.0	 30.0;
	10	 21	 0.0348	 0.0749	 0.0	 30.0	 30.0	 30.0	 0.0	 0.0	 1	 -30.0	 30.0;
	10	 22	 0.0727	 0.1499	 0.0	 29.0	 29.0	 29.0	 0.0	 0.0	 1	 -30.0	 30.0;
	21	 22	 0.0116	 0.0236	 0.0	 29.0	 29.0	 29.0	 0.0	 0.0	 1	 -30.0	 30.0;
	15	 23	 0.1	 0.202	 0.0	 29.0	 29.0	 29.0	 0.0	 0.0	 1	 -30.0	 30.0;
	22	 24	 0.115	 0.179	 0.0	 26.0	 26.0	 26.0	 0.0	 0.0	 1	 -30.0	 30.0;
	23	 24	 0.132	 0.27	 0.0	 29.0	 29.0	 29.0	 0.0	 0.0	 1	 -30.0	 30.0;
	24	 25	 0.1885	 0.3292	 0.0	 27.0	 27.0	 27.0	 0.0	 0.0	 1	 -30.0	 30.0;
	25	 26	 0.2544	 0.38	 0.0	 25.0	 25.0	 25.0	 0.0	 0.0	 1	 -30.0	 30.0;
	25	 27	 0.1093	 0.2087	 0.0	 28.0	 28.0	 28.0	 0.0	 0.0	 1	 -30.0	 30.0;
	28	 27	 0.0	 0.396	 0.0	 75.0	 75.0	 75.0	 0.968	 0.0	 1	 -30.0	 30.0;
	27	 29	 0.2198	 0.4153	 0.0	 28.0	 28.0	 28.0	 0.0	 0.0	 1	 -30.0	 30.0;
	27	 30	 0.3202	 0.6027	 0.0	 28.0	 28.0	 28.0	 0.0	 0.0	 1	 -30.0	 30.0;
	29	 30	 0.2399	 0.4533	 0.0	 28.0	 28.0	 28.0	 0.0	 0.0	 1	 -30.0	 30.0;
	8	 28	 0.0636	 0.2	 0.0428	 140.0	 140.0	 140.0	 0.0	 0.0	 1	 -30.0	 30.0;
	6	 28	 0.0169	 0.0599	 0.013	 149.0	 149.0	 149.0	 0.0	 0.0	 1	 -30.0	 30.0;
];

% INFO    : === Translation Options ===
% INFO    : Load Model:                  from file ./pglib_opf_case30_ieee.m.api.sol
% INFO    : Gen Active Capacity Model:   stat
% INFO    : Gen Reactive Capacity Model: al50ag
% INFO    : Gen Active Cost Model:       stat
% INFO    : 
% INFO    : === Load Replacement Notes ===
% INFO    : Bus 1	: Pd=0.0, Qd=0.0 -> Pd=0.00, Qd=0.00
% INFO    : Bus 2	: Pd=21.7, Qd=12.7 -> Pd=36.08, Qd=12.70
% INFO    : Bus 3	: Pd=2.4, Qd=1.2 -> Pd=3.99, Qd=1.20
% INFO    : Bus 4	: Pd=7.6, Qd=1.6 -> Pd=12.64, Qd=1.60
% INFO    : Bus 5	: Pd=94.2, Qd=19.0 -> Pd=156.64, Qd=19.00
% INFO    : Bus 6	: Pd=0.0, Qd=0.0 -> Pd=0.00, Qd=0.00
% INFO    : Bus 7	: Pd=22.8, Qd=10.9 -> Pd=37.91, Qd=10.90
% INFO    : Bus 8	: Pd=30.0, Qd=30.0 -> Pd=49.89, Qd=30.00
% INFO    : Bus 9	: Pd=0.0, Qd=0.0 -> Pd=0.00, Qd=0.00
% INFO    : Bus 10	: Pd=5.8, Qd=2.0 -> Pd=9.64, Qd=2.00
% INFO    : Bus 11	: Pd=0.0, Qd=0.0 -> Pd=0.00, Qd=0.00
% INFO    : Bus 12	: Pd=11.2, Qd=7.5 -> Pd=18.62, Qd=7.50
% INFO    : Bus 13	: Pd=0.0, Qd=0.0 -> Pd=0.00, Qd=0.00
% INFO    : Bus 14	: Pd=6.2, Qd=1.6 -> Pd=10.31, Qd=1.60
% INFO    : Bus 15	: Pd=8.2, Qd=2.5 -> Pd=13.64, Qd=2.50
% INFO    : Bus 16	: Pd=3.5, Qd=1.8 -> Pd=5.82, Qd=1.80
% INFO    : Bus 17	: Pd=9.0, Qd=5.8 -> Pd=14.97, Qd=5.80
% INFO    : Bus 18	: Pd=3.2, Qd=0.9 -> Pd=5.32, Qd=0.90
% INFO    : Bus 19	: Pd=9.5, Qd=3.4 -> Pd=15.80, Qd=3.40
% INFO    : Bus 20	: Pd=2.2, Qd=0.7 -> Pd=3.66, Qd=0.70
% INFO    : Bus 21	: Pd=17.5, Qd=11.2 -> Pd=29.10, Qd=11.20
% INFO    : Bus 22	: Pd=0.0, Qd=0.0 -> Pd=0.00, Qd=0.00
% INFO    : Bus 23	: Pd=3.2, Qd=1.6 -> Pd=5.32, Qd=1.60
% INFO    : Bus 24	: Pd=8.7, Qd=6.7 -> Pd=14.47, Qd=6.70
% INFO    : Bus 25	: Pd=0.0, Qd=0.0 -> Pd=0.00, Qd=0.00
% INFO    : Bus 26	: Pd=3.5, Qd=2.3 -> Pd=5.82, Qd=2.30
% INFO    : Bus 27	: Pd=0.0, Qd=0.0 -> Pd=0.00, Qd=0.00
% INFO    : Bus 28	: Pd=0.0, Qd=0.0 -> Pd=0.00, Qd=0.00
% INFO    : Bus 29	: Pd=2.4, Qd=0.9 -> Pd=3.99, Qd=0.90
% INFO    : Bus 30	: Pd=10.6, Qd=1.9 -> Pd=17.63, Qd=1.90
% INFO    : 
% INFO    : === Generator Setpoint Replacement Notes ===
% INFO    : Gen at bus 1	: Pg=218.82, Qg=8.696 -> Pg=254.0, Qg=49.0
% INFO    : Gen at bus 2	: Pg=80.06, Qg=24.367 -> Pg=261.0, Qg=-46.0
% INFO    : Gen at bus 5	: Pg=0.0, Qg=33.561 -> Pg=0.0, Qg=32.0
% INFO    : Gen at bus 8	: Pg=0.0, Qg=40.0 -> Pg=0.0, Qg=192.0
% INFO    : Gen at bus 11	: Pg=0.0, Qg=11.74 -> Pg=0.0, Qg=15.0
% INFO    : Gen at bus 13	: Pg=0.0, Qg=10.28 -> Pg=0.0, Qg=-1.0
% INFO    : 
% INFO    : === Generator Reactive Capacity Atleast Setpoint Value Notes ===
% INFO    : Gen at bus 1	: Qg 49.0, Qmin 0.0, Qmax 10.0 -> Qmin -58.8, Qmax 58.8
% INFO    : Gen at bus 2	: Qg -46.0, Qmin -40.0, Qmax 46.0 -> Qmin -55.2, Qmax 46.0
% INFO    : Gen at bus 8	: Qg 192.0, Qmin -10.0, Qmax 40.0 -> Qmin -230.4, Qmax 230.4
% INFO    : Gen at bus 11	: Qg 15.0, Qmin -6.0, Qmax 24.0 -> Qmin -18.0, Qmax 24.0
% INFO    : 
% INFO    : === Generator Classification Notes ===
% INFO    : SYNC   4   -     0.00
% INFO    : NG     2   -   100.00
% INFO    : 
% INFO    : === Generator Active Capacity Stat Model Notes ===
% INFO    : Gen at bus 1 - NG	: Pg=254.0, Pmax=271.0 -> Pmax=351   samples: 5
% INFO    : Gen at bus 2 - NG	: Pg=261.0, Pmax=92.0 -> Pmax=342   samples: 12
% INFO    : Gen at bus 5 - SYNC	: Pg=0.0, Pmax=0.0 -> Pmax=0   samples: 0
% INFO    : Gen at bus 8 - SYNC	: Pg=0.0, Pmax=0.0 -> Pmax=0   samples: 0
% INFO    : Gen at bus 11 - SYNC	: Pg=0.0, Pmax=0.0 -> Pmax=0   samples: 0
% INFO    : Gen at bus 13 - SYNC	: Pg=0.0, Pmax=0.0 -> Pmax=0   samples: 0
% INFO    : 
% INFO    : === Generator Active Capacity LB Model Notes ===
% INFO    : 
% INFO    : === Generator Reactive Capacity Atleast Max 50 Percent Active Model Notes ===
% INFO    : Gen at bus 1 - NG	: Pmax 351.0, Qmin -58.8, Qmax 58.8 -> Qmin -176.0, Qmax 176.0
% INFO    : Gen at bus 2 - NG	: Pmax 342.0, Qmin -55.2, Qmax 46.0 -> Qmin -171.0, Qmax 171.0
% INFO    : 
% INFO    : === Generator Active Cost Stat Model Notes ===
% INFO    : Updated Generator Cost: NG - 0.0 0.771025 0.0 -> 0 1.06174119843 0
% INFO    : Updated Generator Cost: NG - 0.0 1.387763 0.0 -> 0 1.00675612076 0
% INFO    : Updated Generator Cost: SYNC - 0.0 0.0 0.0 -> 0 0.0 0
% INFO    : Updated Generator Cost: SYNC - 0.0 0.0 0.0 -> 0 0.0 0
% INFO    : Updated Generator Cost: SYNC - 0.0 0.0 0.0 -> 0 0.0 0
% INFO    : Updated Generator Cost: SYNC - 0.0 0.0 0.0 -> 0 0.0 0
% INFO    : 
% INFO    : === Voltage Setpoint Replacement Notes ===
% INFO    : Bus 1	: V=1.06, theta=0.0 -> V=1.06, theta=-0.0
% INFO    : Bus 2	: V=1.03619, theta=-4.11544 -> V=1.02441, theta=-3.89126
% INFO    : Bus 3	: V=1.0153, theta=-6.85431 -> V=1.00985, theta=-10.54451
% INFO    : Bus 4	: V=1.00481, theta=-8.44617 -> V=1.00018, theta=-13.01805
% INFO    : Bus 5	: V=0.99893, theta=-13.14199 -> V=0.9662, theta=-20.12941
% INFO    : Bus 6	: V=1.00215, theta=-10.15704 -> V=1.0142, theta=-16.06815
% INFO    : Bus 7	: V=0.99295, theta=-11.92022 -> V=0.9839, theta=-18.69869
% INFO    : Bus 8	: V=1.00286, theta=-10.93431 -> V=1.06, theta=-18.02838
% INFO    : Bus 9	: V=1.03696, theta=-13.26433 -> V=1.03473, theta=-21.29952
% INFO    : Bus 10	: V=1.03248, theta=-14.89464 -> V=1.02365, theta=-24.09945
% INFO    : Bus 11	: V=1.06, theta=-13.26433 -> V=1.06, theta=-21.29952
% INFO    : Bus 12	: V=1.04642, theta=-14.18496 -> V=1.02349, theta=-22.56005
% INFO    : Bus 13	: V=1.06, theta=-14.18496 -> V=1.02329, theta=-22.56005
% INFO    : Bus 14	: V=1.03122, theta=-15.09046 -> V=1.00424, theta=-24.23205
% INFO    : Bus 15	: V=1.02642, theta=-15.17456 -> V=1.0, theta=-24.49312
% INFO    : Bus 16	: V=1.03281, theta=-14.74997 -> V=1.01311, theta=-23.78738
% INFO    : Bus 17	: V=1.02752, theta=-15.07174 -> V=1.01407, theta=-24.41205
% INFO    : Bus 18	: V=1.01626, theta=-15.78663 -> V=0.9906, theta=-25.68074
% INFO    : Bus 19	: V=1.01342, theta=-15.95472 -> V=0.98975, theta=-26.02224
% INFO    : Bus 20	: V=1.01739, theta=-15.74817 -> V=0.99708, theta=-25.64442
% INFO    : Bus 21	: V=1.0201, theta=-15.34973 -> V=1.00713, theta=-24.98343
% INFO    : Bus 22	: V=1.02069, theta=-15.33567 -> V=1.00778, theta=-24.94841
% INFO    : Bus 23	: V=1.01557, theta=-15.56043 -> V=0.99127, theta=-25.29805
% INFO    : Bus 24	: V=1.0096, theta=-15.72277 -> V=0.99131, theta=-25.66959
% INFO    : Bus 25	: V=1.00658, theta=-15.28886 -> V=0.99864, theta=-25.02879
% INFO    : Bus 26	: V=0.98871, theta=-15.7177 -> V=0.97433, theta=-25.98659
% INFO    : Bus 27	: V=1.01335, theta=-14.75426 -> V=1.01472, theta=-24.08318
% INFO    : Bus 28	: V=0.99869, theta=-10.79549 -> V=1.01665, theta=-17.26502
% INFO    : Bus 29	: V=0.9933, theta=-16.00885 -> V=0.98421, theta=-26.30583
% INFO    : Bus 30	: V=0.9817, theta=-16.90995 -> V=0.96599, theta=-27.89396
% INFO    : 
% INFO    : === Generator Setpoint Replacement Notes ===
% INFO    : Gen at bus 1	: Pg=254.0, Qg=49.0 -> Pg=257.614, Qg=29.114
% INFO    : Gen at bus 1	: Vg=1.06 -> Vg=1.06
% INFO    : Gen at bus 2	: Pg=261.0, Qg=-46.0 -> Pg=255.134, Qg=-22.633
% INFO    : Gen at bus 2	: Vg=1.03619 -> Vg=1.02441
% INFO    : Gen at bus 5	: Pg=0.0, Qg=32.0 -> Pg=0.0, Qg=34.031
% INFO    : Gen at bus 5	: Vg=0.99893 -> Vg=0.9662
% INFO    : Gen at bus 8	: Pg=0.0, Qg=192.0 -> Pg=0.0, Qg=181.446
% INFO    : Gen at bus 8	: Vg=1.00286 -> Vg=1.06
% INFO    : Gen at bus 11	: Pg=0.0, Qg=15.0 -> Pg=0.0, Qg=12.88
% INFO    : Gen at bus 11	: Vg=1.06 -> Vg=1.06
% INFO    : Gen at bus 13	: Pg=0.0, Qg=-1.0 -> Pg=0.0, Qg=-0.148
% INFO    : Gen at bus 13	: Vg=1.06 -> Vg=1.02329
% INFO    : 
% INFO    : === Writing Matpower Case File Notes ===
