%%%%%%%%%%%%%%%%%%%%%%%%%%%%%%%%%%%%%%%%%%%%%%%%%%%%%%%%%%%%%%%%%%%%%%%%%%%
%%%%                                                                  %%%%%
%%%%    IEEE PES Power Grid Library - Optimal Power Flow - v23.07     %%%%%
%%%%          (https://github.com/power-grid-lib/pglib-opf)           %%%%%
%%%%             Benchmark Group - Active Power Increase              %%%%%
%%%%                         23 - July - 2023                         %%%%%
%%%%                                                                  %%%%%
%%%%%%%%%%%%%%%%%%%%%%%%%%%%%%%%%%%%%%%%%%%%%%%%%%%%%%%%%%%%%%%%%%%%%%%%%%%
function mpc = pglib_opf_case10192_epigrids__api
mpc.version = '2';
mpc.baseMVA = 100.0;

%% bus data
%	bus_i	type	Pd	Qd	Gs	Bs	area	Vm	Va	baseKV	zone	Vmax	Vmin
mpc.bus = [
	20401	 2	 0.0	 0.0	 0.0	 0.0	 9	    1.00000	    0.00000	 345.0	 1	    1.10000	    0.90000;
	20402	 2	 0.0	 0.0	 0.0	 0.0	 9	    1.00000	    0.00000	 765.0	 1	    1.10000	    0.90000;
	20403	 2	 0.0	 0.0	 0.0	 0.0	 9	    1.00000	    0.00000	 345.0	 1	    1.10000	    0.90000;
	20404	 2	 0.0	 0.0	 0.0	 0.0	 9	    1.00000	    0.00000	 765.0	 1	    1.10000	    0.90000;
	20405	 2	 0.0	 0.0	 0.0	 0.0	 9	    1.00000	    0.00000	 345.0	 1	    1.10000	    0.90000;
	20406	 2	 0.0	 0.0	 0.0	 0.0	 9	    1.00000	    0.00000	 765.0	 1	    1.10000	    0.90000;
	20407	 2	 0.0	 0.0	 0.0	 0.0	 9	    1.00000	    0.00000	 345.0	 1	    1.10000	    0.90000;
	20408	 2	 0.0	 0.0	 0.0	 0.0	 9	    1.00000	    0.00000	 345.0	 1	    1.10000	    0.90000;
	20409	 2	 0.0	 0.0	 0.0	 0.0	 9	    1.00000	    0.00000	 345.0	 1	    1.10000	    0.90000;
	20410	 2	 0.0	 0.0	 0.0	 0.0	 9	    1.00000	    0.00000	 345.0	 1	    1.10000	    0.90000;
	20411	 2	 0.0	 0.0	 0.0	 0.0	 9	    1.00000	    0.00000	 345.0	 1	    1.10000	    0.90000;
	20412	 2	 0.0	 0.0	 0.0	 0.0	 9	    1.00000	    0.00000	 345.0	 1	    1.10000	    0.90000;
	20413	 2	 0.0	 0.0	 0.0	 0.0	 9	    1.00000	    0.00000	 765.0	 1	    1.10000	    0.90000;
	20414	 2	 0.0	 0.0	 0.0	 0.0	 9	    1.00000	    0.00000	 345.0	 1	    1.10000	    0.90000;
	20415	 2	 0.0	 0.0	 0.0	 0.0	 9	    1.00000	    0.00000	 345.0	 1	    1.10000	    0.90000;
	20416	 2	 0.0	 0.0	 0.0	 0.0	 9	    1.00000	    0.00000	 138.0	 1	    1.10000	    0.90000;
	20417	 2	 0.0	 0.0	 0.0	 0.0	 9	    1.00000	    0.00000	 765.0	 1	    1.10000	    0.90000;
	20418	 2	 0.0	 0.0	 0.0	 0.0	 9	    1.00000	    0.00000	 345.0	 1	    1.10000	    0.90000;
	20419	 2	 0.0	 0.0	 0.0	 0.0	 9	    1.00000	    0.00000	 345.0	 1	    1.10000	    0.90000;
	20420	 1	 0.0	 0.0	 0.0	 0.0	 9	    1.00000	    0.00000	 345.0	 1	    1.10000	    0.90000;
	20421	 2	 0.0	 0.0	 0.0	 0.0	 9	    1.00000	    0.00000	 138.0	 1	    1.10000	    0.90000;
	20422	 2	 0.0	 0.0	 0.0	 0.0	 9	    1.00000	    0.00000	 345.0	 1	    1.10000	    0.90000;
	20423	 2	 0.0	 0.0	 0.0	 0.0	 9	    1.00000	    0.00000	 345.0	 1	    1.10000	    0.90000;
	20424	 1	 0.0	 0.0	 0.0	 0.0	 9	    1.00000	    0.00000	 345.0	 1	    1.10000	    0.90000;
	20425	 2	 0.0	 0.0	 0.0	 0.0	 9	    1.00000	    0.00000	 765.0	 1	    1.10000	    0.90000;
	20426	 1	 0.0	 0.0	 0.0	 0.0	 9	    1.00000	    0.00000	 345.0	 1	    1.10000	    0.90000;
	20427	 1	 0.0	 0.0	 0.0	 0.0	 9	    1.00000	    0.00000	 345.0	 1	    1.10000	    0.90000;
	20428	 2	 0.0	 0.0	 0.0	 0.0	 9	    1.00000	    0.00000	 345.0	 1	    1.10000	    0.90000;
	20429	 2	 0.0	 0.0	 0.0	 0.0	 9	    1.00000	    0.00000	 138.0	 1	    1.10000	    0.90000;
	20430	 2	 0.0	 0.0	 0.0	 0.0	 9	    1.00000	    0.00000	 345.0	 1	    1.10000	    0.90000;
	20431	 2	 0.0	 0.0	 0.0	 0.0	 9	    1.00000	    0.00000	 138.0	 1	    1.10000	    0.90000;
	20432	 2	 0.0	 0.0	 0.0	 0.0	 9	    1.00000	    0.00000	 138.0	 1	    1.10000	    0.90000;
	20433	 2	 0.0	 0.0	 0.0	 0.0	 9	    1.00000	    0.00000	 138.0	 1	    1.10000	    0.90000;
	20434	 2	 0.0	 0.0	 0.0	 0.0	 9	    1.00000	    0.00000	 138.0	 1	    1.10000	    0.90000;
	20435	 2	 0.0	 0.0	 0.0	 0.0	 9	    1.00000	    0.00000	 138.0	 1	    1.10000	    0.90000;
	20436	 2	 0.0	 0.0	 0.0	 0.0	 9	    1.00000	    0.00000	 345.0	 1	    1.10000	    0.90000;
	20437	 2	 0.0	 0.0	 0.0	 0.0	 9	    1.00000	    0.00000	 345.0	 1	    1.10000	    0.90000;
	20438	 2	 0.0	 0.0	 0.0	 0.0	 9	    1.00000	    0.00000	 345.0	 1	    1.10000	    0.90000;
	20439	 2	 0.0	 0.0	 0.0	 0.0	 9	    1.00000	    0.00000	 138.0	 1	    1.10000	    0.90000;
	20440	 2	 0.0	 0.0	 0.0	 0.0	 9	    1.00000	    0.00000	 345.0	 1	    1.10000	    0.90000;
	20441	 1	 0.0	 0.0	 0.0	 0.0	 9	    1.00000	    0.00000	 345.0	 1	    1.10000	    0.90000;
	20442	 2	 0.0	 0.0	 0.0	 0.0	 9	    1.00000	    0.00000	 345.0	 1	    1.10000	    0.90000;
	20443	 1	 0.0	 0.0	 0.0	 0.0	 9	    1.00000	    0.00000	 345.0	 1	    1.10000	    0.90000;
	20444	 2	 0.0	 0.0	 0.0	 0.0	 9	    1.00000	    0.00000	 138.0	 1	    1.10000	    0.90000;
	20445	 2	 0.0	 0.0	 0.0	 0.0	 9	    1.00000	    0.00000	 138.0	 1	    1.10000	    0.90000;
	20446	 2	 0.0	 0.0	 0.0	 0.0	 9	    1.00000	    0.00000	 138.0	 1	    1.10000	    0.90000;
	20447	 1	 0.0	 0.0	 0.0	 0.0	 9	    1.00000	    0.00000	 345.0	 1	    1.10000	    0.90000;
	20448	 2	 0.0	 0.0	 0.0	 0.0	 9	    1.00000	    0.00000	 138.0	 1	    1.10000	    0.90000;
	20449	 2	 0.0	 0.0	 0.0	 0.0	 9	    1.00000	    0.00000	 138.0	 1	    1.10000	    0.90000;
	20450	 2	 0.0	 0.0	 0.0	 0.0	 9	    1.00000	    0.00000	 138.0	 1	    1.10000	    0.90000;
	20451	 2	 0.0	 0.0	 0.0	 0.0	 9	    1.00000	    0.00000	 69.0	 1	    1.10000	    0.90000;
	20452	 2	 0.0	 0.0	 0.0	 0.0	 9	    1.00000	    0.00000	 69.0	 1	    1.10000	    0.90000;
	20453	 2	 0.0	 0.0	 0.0	 0.0	 9	    1.00000	    0.00000	 69.0	 1	    1.10000	    0.90000;
	20454	 2	 0.0	 0.0	 0.0	 0.0	 9	    1.00000	    0.00000	 69.0	 1	    1.10000	    0.90000;
	20455	 2	 0.0	 0.0	 0.0	 0.0	 9	    1.00000	    0.00000	 138.0	 1	    1.10000	    0.90000;
	20456	 1	 0.0	 0.0	 0.0	 0.0	 9	    1.00000	    0.00000	 138.0	 1	    1.10000	    0.90000;
	20457	 2	 0.0	 0.0	 0.0	 0.0	 9	    1.00000	    0.00000	 138.0	 1	    1.10000	    0.90000;
	20458	 2	 0.0	 0.0	 0.0	 0.0	 17	    1.00000	    0.00000	 765.0	 1	    1.10000	    0.90000;
	20459	 2	 0.0	 0.0	 0.0	 0.0	 17	    1.00000	    0.00000	 765.0	 1	    1.10000	    0.90000;
	20460	 2	 0.0	 0.0	 0.0	 0.0	 17	    1.00000	    0.00000	 345.0	 1	    1.10000	    0.90000;
	20461	 2	 0.0	 0.0	 0.0	 0.0	 17	    1.00000	    0.00000	 765.0	 1	    1.10000	    0.90000;
	20462	 2	 0.0	 0.0	 0.0	 0.0	 17	    1.00000	    0.00000	 345.0	 1	    1.10000	    0.90000;
	20463	 2	 0.0	 0.0	 0.0	 0.0	 17	    1.00000	    0.00000	 345.0	 1	    1.10000	    0.90000;
	20464	 2	 0.0	 0.0	 0.0	 0.0	 17	    1.00000	    0.00000	 345.0	 1	    1.10000	    0.90000;
	20465	 2	 0.0	 0.0	 0.0	 0.0	 17	    1.00000	    0.00000	 345.0	 1	    1.10000	    0.90000;
	20466	 2	 0.0	 0.0	 0.0	 0.0	 17	    1.00000	    0.00000	 138.0	 1	    1.10000	    0.90000;
	20467	 2	 0.0	 0.0	 0.0	 0.0	 17	    1.00000	    0.00000	 345.0	 1	    1.10000	    0.90000;
	20468	 2	 0.0	 0.0	 0.0	 0.0	 17	    1.00000	    0.00000	 345.0	 1	    1.10000	    0.90000;
	20469	 2	 0.0	 0.0	 0.0	 0.0	 17	    1.00000	    0.00000	 345.0	 1	    1.10000	    0.90000;
	20470	 2	 0.0	 0.0	 0.0	 0.0	 17	    1.00000	    0.00000	 138.0	 1	    1.10000	    0.90000;
	20471	 2	 0.0	 0.0	 0.0	 0.0	 17	    1.00000	    0.00000	 345.0	 1	    1.10000	    0.90000;
	20472	 2	 0.0	 0.0	 0.0	 0.0	 17	    1.00000	    0.00000	 138.0	 1	    1.10000	    0.90000;
	20473	 2	 0.0	 0.0	 0.0	 0.0	 17	    1.00000	    0.00000	 345.0	 1	    1.10000	    0.90000;
	20474	 1	 0.0	 0.0	 0.0	 0.0	 17	    1.00000	    0.00000	 345.0	 1	    1.10000	    0.90000;
	20475	 2	 0.0	 0.0	 0.0	 0.0	 17	    1.00000	    0.00000	 138.0	 1	    1.10000	    0.90000;
	20476	 2	 0.0	 0.0	 0.0	 0.0	 17	    1.00000	    0.00000	 345.0	 1	    1.10000	    0.90000;
	20477	 2	 0.0	 0.0	 0.0	 0.0	 17	    1.00000	    0.00000	 345.0	 1	    1.10000	    0.90000;
	20478	 1	 0.0	 0.0	 0.0	 0.0	 17	    1.00000	    0.00000	 765.0	 1	    1.10000	    0.90000;
	20479	 2	 0.0	 0.0	 0.0	 0.0	 17	    1.00000	    0.00000	 345.0	 1	    1.10000	    0.90000;
	20480	 2	 0.0	 0.0	 0.0	 0.0	 17	    1.00000	    0.00000	 345.0	 1	    1.10000	    0.90000;
	20481	 2	 0.0	 0.0	 0.0	 0.0	 17	    1.00000	    0.00000	 138.0	 1	    1.10000	    0.90000;
	20482	 1	 0.0	 0.0	 0.0	 0.0	 17	    1.00000	    0.00000	 345.0	 1	    1.10000	    0.90000;
	20483	 2	 0.0	 0.0	 0.0	 0.0	 17	    1.00000	    0.00000	 138.0	 1	    1.10000	    0.90000;
	20484	 1	 0.0	 0.0	 0.0	 0.0	 17	    1.00000	    0.00000	 345.0	 1	    1.10000	    0.90000;
	20485	 2	 0.0	 0.0	 0.0	 0.0	 17	    1.00000	    0.00000	 138.0	 1	    1.10000	    0.90000;
	20486	 1	 0.0	 0.0	 0.0	 0.0	 17	    1.00000	    0.00000	 345.0	 1	    1.10000	    0.90000;
	20487	 2	 0.0	 0.0	 0.0	 0.0	 17	    1.00000	    0.00000	 138.0	 1	    1.10000	    0.90000;
	20488	 1	 0.0	 0.0	 0.0	 0.0	 17	    1.00000	    0.00000	 138.0	 1	    1.10000	    0.90000;
	20489	 2	 0.0	 0.0	 0.0	 0.0	 17	    1.00000	    0.00000	 138.0	 1	    1.10000	    0.90000;
	20490	 2	 0.0	 0.0	 0.0	 0.0	 17	    1.00000	    0.00000	 138.0	 1	    1.10000	    0.90000;
	20491	 1	 0.0	 0.0	 0.0	 0.0	 17	    1.00000	    0.00000	 138.0	 1	    1.10000	    0.90000;
	20492	 1	 0.0	 0.0	 0.0	 0.0	 17	    1.00000	    0.00000	 138.0	 1	    1.10000	    0.90000;
	20493	 2	 0.0	 0.0	 0.0	 0.0	 17	    1.00000	    0.00000	 69.0	 1	    1.10000	    0.90000;
	20494	 2	 0.0	 0.0	 0.0	 0.0	 17	    1.00000	    0.00000	 138.0	 1	    1.10000	    0.90000;
	20495	 1	 0.0	 0.0	 0.0	 0.0	 17	    1.00000	    0.00000	 138.0	 1	    1.10000	    0.90000;
	20496	 2	 0.0	 0.0	 0.0	 0.0	 17	    1.00000	    0.00000	 69.0	 1	    1.10000	    0.90000;
	20497	 2	 0.0	 0.0	 0.0	 0.0	 17	    1.00000	    0.00000	 69.0	 1	    1.10000	    0.90000;
	20498	 2	 0.0	 0.0	 0.0	 0.0	 17	    1.00000	    0.00000	 69.0	 1	    1.10000	    0.90000;
	20499	 1	 0.0	 0.0	 0.0	 0.0	 17	    1.00000	    0.00000	 138.0	 1	    1.10000	    0.90000;
	20500	 2	 0.0	 0.0	 0.0	 0.0	 17	    1.00000	    0.00000	 345.0	 1	    1.10000	    0.90000;
	20501	 1	 0.0	 0.0	 0.0	 0.0	 17	    1.00000	    0.00000	 138.0	 1	    1.10000	    0.90000;
	20502	 2	 0.0	 0.0	 0.0	 0.0	 17	    1.00000	    0.00000	 138.0	 1	    1.10000	    0.90000;
	20503	 1	 0.0	 0.0	 0.0	 0.0	 17	    1.00000	    0.00000	 138.0	 1	    1.10000	    0.90000;
	20504	 2	 0.0	 0.0	 0.0	 0.0	 17	    1.00000	    0.00000	 69.0	 1	    1.10000	    0.90000;
	20505	 2	 0.0	 0.0	 0.0	 0.0	 17	    1.00000	    0.00000	 345.0	 1	    1.10000	    0.90000;
	20506	 2	 0.0	 0.0	 0.0	 0.0	 17	    1.00000	    0.00000	 69.0	 1	    1.10000	    0.90000;
	20507	 2	 0.0	 0.0	 0.0	 0.0	 17	    1.00000	    0.00000	 138.0	 1	    1.10000	    0.90000;
	20508	 1	 0.0	 0.0	 0.0	 0.0	 17	    1.00000	    0.00000	 138.0	 1	    1.10000	    0.90000;
	20509	 2	 0.0	 0.0	 0.0	 0.0	 17	    1.00000	    0.00000	 69.0	 1	    1.10000	    0.90000;
	20510	 2	 0.0	 0.0	 0.0	 0.0	 17	    1.00000	    0.00000	 69.0	 1	    1.10000	    0.90000;
	20511	 1	 0.0	 0.0	 0.0	 0.0	 17	    1.00000	    0.00000	 345.0	 1	    1.10000	    0.90000;
	20512	 2	 0.0	 0.0	 0.0	 0.0	 17	    1.00000	    0.00000	 69.0	 1	    1.10000	    0.90000;
	20513	 2	 0.0	 0.0	 0.0	 0.0	 17	    1.00000	    0.00000	 69.0	 1	    1.10000	    0.90000;
	20514	 2	 0.0	 0.0	 0.0	 0.0	 17	    1.00000	    0.00000	 69.0	 1	    1.10000	    0.90000;
	20515	 2	 0.0	 0.0	 0.0	 0.0	 17	    1.00000	    0.00000	 69.0	 1	    1.10000	    0.90000;
	20516	 2	 0.0	 0.0	 0.0	 0.0	 17	    1.00000	    0.00000	 138.0	 1	    1.10000	    0.90000;
	20517	 2	 0.0	 0.0	 0.0	 0.0	 17	    1.00000	    0.00000	 69.0	 1	    1.10000	    0.90000;
	20518	 2	 0.0	 0.0	 0.0	 0.0	 17	    1.00000	    0.00000	 69.0	 1	    1.10000	    0.90000;
	20519	 1	 0.0	 0.0	 0.0	 0.0	 17	    1.00000	    0.00000	 138.0	 1	    1.10000	    0.90000;
	20520	 2	 0.0	 0.0	 0.0	 0.0	 17	    1.00000	    0.00000	 69.0	 1	    1.10000	    0.90000;
	20521	 1	 0.0	 0.0	 0.0	 0.0	 17	    1.00000	    0.00000	 138.0	 1	    1.10000	    0.90000;
	20522	 2	 0.0	 0.0	 0.0	 0.0	 17	    1.00000	    0.00000	 69.0	 1	    1.10000	    0.90000;
	20523	 2	 0.0	 0.0	 0.0	 0.0	 17	    1.00000	    0.00000	 69.0	 1	    1.10000	    0.90000;
	20524	 2	 0.0	 0.0	 0.0	 0.0	 17	    1.00000	    0.00000	 138.0	 1	    1.10000	    0.90000;
	20525	 1	 0.0	 0.0	 0.0	 0.0	 17	    1.00000	    0.00000	 138.0	 1	    1.10000	    0.90000;
	20526	 1	 0.0	 0.0	 0.0	 0.0	 17	    1.00000	    0.00000	 138.0	 1	    1.10000	    0.90000;
	20527	 2	 0.0	 0.0	 0.0	 0.0	 17	    1.00000	    0.00000	 138.0	 1	    1.10000	    0.90000;
	20528	 2	 0.0	 0.0	 0.0	 0.0	 17	    1.00000	    0.00000	 69.0	 1	    1.10000	    0.90000;
	20529	 2	 0.0	 0.0	 0.0	 0.0	 17	    1.00000	    0.00000	 69.0	 1	    1.10000	    0.90000;
	20530	 2	 0.0	 0.0	 0.0	 0.0	 17	    1.00000	    0.00000	 69.0	 1	    1.10000	    0.90000;
	20531	 2	 0.0	 0.0	 0.0	 0.0	 27	    1.00000	    0.00000	 765.0	 1	    1.10000	    0.90000;
	20532	 3	 0.0	 0.0	 0.0	 0.0	 27	    1.00000	    0.00000	 345.0	 1	    1.10000	    0.90000;
	20533	 2	 0.0	 0.0	 0.0	 0.0	 27	    1.00000	    0.00000	 765.0	 1	    1.10000	    0.90000;
	20534	 2	 0.0	 0.0	 0.0	 0.0	 27	    1.00000	    0.00000	 345.0	 1	    1.10000	    0.90000;
	20535	 2	 0.0	 0.0	 0.0	 0.0	 27	    1.00000	    0.00000	 345.0	 1	    1.10000	    0.90000;
	20536	 2	 0.0	 0.0	 0.0	 0.0	 27	    1.00000	    0.00000	 345.0	 1	    1.10000	    0.90000;
	20537	 2	 0.0	 0.0	 0.0	 0.0	 27	    1.00000	    0.00000	 765.0	 1	    1.10000	    0.90000;
	20538	 2	 0.0	 0.0	 0.0	 0.0	 27	    1.00000	    0.00000	 345.0	 1	    1.10000	    0.90000;
	20539	 1	 0.0	 0.0	 0.0	 0.0	 27	    1.00000	    0.00000	 345.0	 1	    1.10000	    0.90000;
	20540	 2	 0.0	 0.0	 0.0	 0.0	 27	    1.00000	    0.00000	 138.0	 1	    1.10000	    0.90000;
	20541	 2	 0.0	 0.0	 0.0	 0.0	 27	    1.00000	    0.00000	 765.0	 1	    1.10000	    0.90000;
	20542	 2	 0.0	 0.0	 0.0	 0.0	 27	    1.00000	    0.00000	 345.0	 1	    1.10000	    0.90000;
	20543	 2	 0.0	 0.0	 0.0	 0.0	 27	    1.00000	    0.00000	 345.0	 1	    1.10000	    0.90000;
	20544	 2	 0.0	 0.0	 0.0	 0.0	 27	    1.00000	    0.00000	 345.0	 1	    1.10000	    0.90000;
	20545	 2	 0.0	 0.0	 0.0	 0.0	 27	    1.00000	    0.00000	 345.0	 1	    1.10000	    0.90000;
	20546	 2	 0.0	 0.0	 0.0	 0.0	 27	    1.00000	    0.00000	 345.0	 1	    1.10000	    0.90000;
	20547	 2	 0.0	 0.0	 0.0	 0.0	 27	    1.00000	    0.00000	 345.0	 1	    1.10000	    0.90000;
	20548	 2	 0.0	 0.0	 0.0	 0.0	 27	    1.00000	    0.00000	 345.0	 1	    1.10000	    0.90000;
	20549	 2	 0.0	 0.0	 0.0	 0.0	 27	    1.00000	    0.00000	 765.0	 1	    1.10000	    0.90000;
	20550	 2	 0.0	 0.0	 0.0	 0.0	 27	    1.00000	    0.00000	 345.0	 1	    1.10000	    0.90000;
	20551	 2	 0.0	 0.0	 0.0	 0.0	 27	    1.00000	    0.00000	 138.0	 1	    1.10000	    0.90000;
	20552	 2	 0.0	 0.0	 0.0	 0.0	 27	    1.00000	    0.00000	 138.0	 1	    1.10000	    0.90000;
	20553	 2	 0.0	 0.0	 0.0	 0.0	 27	    1.00000	    0.00000	 138.0	 1	    1.10000	    0.90000;
	20554	 2	 0.0	 0.0	 0.0	 0.0	 27	    1.00000	    0.00000	 345.0	 1	    1.10000	    0.90000;
	20555	 2	 0.0	 0.0	 0.0	 0.0	 27	    1.00000	    0.00000	 345.0	 1	    1.10000	    0.90000;
	20556	 2	 0.0	 0.0	 0.0	 0.0	 27	    1.00000	    0.00000	 138.0	 1	    1.10000	    0.90000;
	20557	 2	 0.0	 0.0	 0.0	 0.0	 27	    1.00000	    0.00000	 345.0	 1	    1.10000	    0.90000;
	20558	 1	 0.0	 0.0	 0.0	 0.0	 27	    1.00000	    0.00000	 345.0	 1	    1.10000	    0.90000;
	20559	 2	 0.0	 0.0	 0.0	 0.0	 27	    1.00000	    0.00000	 345.0	 1	    1.10000	    0.90000;
	20560	 2	 0.0	 0.0	 0.0	 0.0	 27	    1.00000	    0.00000	 345.0	 1	    1.10000	    0.90000;
	20561	 2	 0.0	 0.0	 0.0	 0.0	 27	    1.00000	    0.00000	 345.0	 1	    1.10000	    0.90000;
	20562	 2	 0.0	 0.0	 0.0	 0.0	 27	    1.00000	    0.00000	 345.0	 1	    1.10000	    0.90000;
	20563	 2	 0.0	 0.0	 0.0	 0.0	 27	    1.00000	    0.00000	 345.0	 1	    1.10000	    0.90000;
	20564	 2	 0.0	 0.0	 0.0	 0.0	 27	    1.00000	    0.00000	 345.0	 1	    1.10000	    0.90000;
	20565	 2	 0.0	 0.0	 0.0	 0.0	 27	    1.00000	    0.00000	 345.0	 1	    1.10000	    0.90000;
	20566	 2	 0.0	 0.0	 0.0	 0.0	 27	    1.00000	    0.00000	 138.0	 1	    1.10000	    0.90000;
	20567	 2	 0.0	 0.0	 0.0	 0.0	 27	    1.00000	    0.00000	 345.0	 1	    1.10000	    0.90000;
	20568	 2	 0.0	 0.0	 0.0	 0.0	 27	    1.00000	    0.00000	 345.0	 1	    1.10000	    0.90000;
	20569	 2	 0.0	 0.0	 0.0	 0.0	 27	    1.00000	    0.00000	 138.0	 1	    1.10000	    0.90000;
	20570	 2	 0.0	 0.0	 0.0	 0.0	 27	    1.00000	    0.00000	 138.0	 1	    1.10000	    0.90000;
	20571	 2	 0.0	 0.0	 0.0	 0.0	 27	    1.00000	    0.00000	 69.0	 1	    1.10000	    0.90000;
	20572	 2	 0.0	 0.0	 0.0	 0.0	 27	    1.00000	    0.00000	 69.0	 1	    1.10000	    0.90000;
	20573	 2	 0.0	 0.0	 0.0	 0.0	 27	    1.00000	    0.00000	 138.0	 1	    1.10000	    0.90000;
	20574	 1	 0.0	 0.0	 0.0	 0.0	 27	    1.00000	    0.00000	 138.0	 1	    1.10000	    0.90000;
	20575	 2	 0.0	 0.0	 0.0	 0.0	 27	    1.00000	    0.00000	 69.0	 1	    1.10000	    0.90000;
	20576	 1	 0.0	 0.0	 0.0	 0.0	 27	    1.00000	    0.00000	 138.0	 1	    1.10000	    0.90000;
	20577	 2	 0.0	 0.0	 0.0	 0.0	 27	    1.00000	    0.00000	 138.0	 1	    1.10000	    0.90000;
	20578	 2	 0.0	 0.0	 0.0	 0.0	 27	    1.00000	    0.00000	 138.0	 1	    1.10000	    0.90000;
	20579	 2	 0.0	 0.0	 0.0	 0.0	 27	    1.00000	    0.00000	 69.0	 1	    1.10000	    0.90000;
	20580	 2	 0.0	 0.0	 0.0	 0.0	 27	    1.00000	    0.00000	 69.0	 1	    1.10000	    0.90000;
	20581	 2	 0.0	 0.0	 0.0	 0.0	 27	    1.00000	    0.00000	 138.0	 1	    1.10000	    0.90000;
	20582	 1	 0.0	 0.0	 0.0	 0.0	 27	    1.00000	    0.00000	 138.0	 1	    1.10000	    0.90000;
	20583	 1	 0.0	 0.0	 0.0	 0.0	 27	    1.00000	    0.00000	 138.0	 1	    1.10000	    0.90000;
	20584	 2	 0.0	 0.0	 0.0	 0.0	 27	    1.00000	    0.00000	 138.0	 1	    1.10000	    0.90000;
	20585	 2	 0.0	 0.0	 0.0	 0.0	 27	    1.00000	    0.00000	 138.0	 1	    1.10000	    0.90000;
	20586	 1	 0.0	 0.0	 0.0	 0.0	 27	    1.00000	    0.00000	 138.0	 1	    1.10000	    0.90000;
	20587	 2	 0.0	 0.0	 0.0	 0.0	 27	    1.00000	    0.00000	 138.0	 1	    1.10000	    0.90000;
	20588	 2	 0.0	 0.0	 0.0	 0.0	 27	    1.00000	    0.00000	 69.0	 1	    1.10000	    0.90000;
	20589	 2	 0.0	 0.0	 0.0	 0.0	 27	    1.00000	    0.00000	 345.0	 1	    1.10000	    0.90000;
	20590	 2	 0.0	 0.0	 0.0	 0.0	 27	    1.00000	    0.00000	 138.0	 1	    1.10000	    0.90000;
	20591	 2	 0.0	 0.0	 0.0	 0.0	 27	    1.00000	    0.00000	 69.0	 1	    1.10000	    0.90000;
	20592	 2	 0.0	 0.0	 0.0	 0.0	 27	    1.00000	    0.00000	 69.0	 1	    1.10000	    0.90000;
	20593	 1	 20.50	 4.25	 0.0	 0.0	 9	    1.00000	    0.00000	 138.0	 1	    1.10000	    0.90000;
	20594	 1	 101.32	 19.91	 0.0	 0.0	 9	    1.00000	    0.00000	 138.0	 1	    1.10000	    0.90000;
	20595	 1	 23.85	 4.67	 0.0	 0.0	 9	    1.00000	    0.00000	 138.0	 1	    1.10000	    0.90000;
	20596	 1	 6.43	 1.26	 0.0	 0.0	 9	    1.00000	    0.00000	 138.0	 1	    1.10000	    0.90000;
	20597	 1	 0.0	 0.0	 0.0	 0.0	 9	    1.00000	    0.00000	 138.0	 1	    1.10000	    0.90000;
	20598	 1	 0.0	 0.0	 0.0	 0.0	 9	    1.00000	    0.00000	 138.0	 1	    1.10000	    0.90000;
	20599	 1	 23.26	 5.38	 0.0	 0.0	 9	    1.00000	    0.00000	 138.0	 1	    1.10000	    0.90000;
	20600	 1	 0.0	 0.0	 0.0	 0.0	 9	    1.00000	    0.00000	 138.0	 1	    1.10000	    0.90000;
	20601	 1	 0.0	 0.0	 0.0	 0.0	 9	    1.00000	    0.00000	 138.0	 1	    1.10000	    0.90000;
	20602	 1	 5.84	 1.10	 0.0	 0.0	 9	    1.00000	    0.00000	 69.0	 1	    1.10000	    0.90000;
	20603	 1	 6.08	 1.13	 0.0	 0.0	 9	    1.00000	    0.00000	 69.0	 1	    1.10000	    0.90000;
	20604	 1	 4.26	 0.80	 0.0	 0.0	 9	    1.00000	    0.00000	 69.0	 1	    1.10000	    0.90000;
	20605	 1	 8.52	 1.59	 0.0	 0.0	 9	    1.00000	    0.00000	 69.0	 1	    1.10000	    0.90000;
	20606	 1	 18.48	 3.45	 0.0	 0.0	 9	    1.00000	    0.00000	 69.0	 1	    1.10000	    0.90000;
	20607	 1	 23.42	 4.34	 0.0	 0.0	 9	    1.00000	    0.00000	 69.0	 1	    1.10000	    0.90000;
	20608	 1	 9.17	 1.70	 0.0	 0.0	 9	    1.00000	    0.00000	 69.0	 1	    1.10000	    0.90000;
	20609	 1	 10.25	 1.91	 0.0	 0.0	 9	    1.00000	    0.00000	 69.0	 1	    1.10000	    0.90000;
	20610	 1	 3.33	 0.62	 0.0	 0.0	 9	    1.00000	    0.00000	 69.0	 1	    1.10000	    0.90000;
	20611	 1	 11.06	 2.07	 0.0	 0.0	 9	    1.00000	    0.00000	 69.0	 1	    1.10000	    0.90000;
	20612	 1	 7.13	 1.34	 0.0	 0.0	 9	    1.00000	    0.00000	 69.0	 1	    1.10000	    0.90000;
	20613	 1	 0.0	 0.0	 0.0	 0.0	 9	    1.00000	    0.00000	 345.0	 1	    1.10000	    0.90000;
	20614	 1	 0.0	 0.0	 0.0	 0.0	 9	    1.00000	    0.00000	 345.0	 1	    1.10000	    0.90000;
	20615	 1	 7.29	 1.39	 0.0	 0.0	 9	    1.00000	    0.00000	 138.0	 1	    1.10000	    0.90000;
	20616	 1	 0.0	 0.0	 0.0	 0.0	 9	    1.00000	    0.00000	 138.0	 1	    1.10000	    0.90000;
	20617	 1	 0.0	 0.0	 0.0	 0.0	 9	    1.00000	    0.00000	 138.0	 1	    1.10000	    0.90000;
	20618	 1	 0.0	 0.0	 0.0	 0.0	 9	    1.00000	    0.00000	 138.0	 1	    1.10000	    0.90000;
	20619	 1	 4.75	 0.89	 0.0	 0.0	 9	    1.00000	    0.00000	 69.0	 1	    1.10000	    0.90000;
	20620	 1	 5.71	 1.06	 0.0	 0.0	 9	    1.00000	    0.00000	 69.0	 1	    1.10000	    0.90000;
	20621	 1	 3.12	 0.59	 0.0	 0.0	 9	    1.00000	    0.00000	 69.0	 1	    1.10000	    0.90000;
	20622	 1	 3.57	 0.69	 0.0	 0.0	 9	    1.00000	    0.00000	 69.0	 1	    1.10000	    0.90000;
	20623	 1	 0.0	 0.0	 0.0	 0.0	 9	    1.00000	    0.00000	 138.0	 1	    1.10000	    0.90000;
	20624	 1	 15.59	 2.94	 0.0	 0.0	 9	    1.00000	    0.00000	 69.0	 1	    1.10000	    0.90000;
	20625	 1	 9.74	 1.84	 0.0	 0.0	 9	    1.00000	    0.00000	 69.0	 1	    1.10000	    0.90000;
	20626	 1	 4.21	 0.78	 0.0	 0.0	 9	    1.00000	    0.00000	 69.0	 1	    1.10000	    0.90000;
	20627	 1	 0.0	 0.0	 0.0	 0.0	 9	    1.00000	    0.00000	 138.0	 1	    1.10000	    0.90000;
	20628	 1	 6.56	 1.23	 0.0	 0.0	 9	    1.00000	    0.00000	 69.0	 1	    1.10000	    0.90000;
	20629	 1	 0.0	 0.0	 0.0	 0.0	 9	    1.00000	    0.00000	 138.0	 1	    1.10000	    0.90000;
	20630	 1	 13.80	 2.59	 0.0	 0.0	 9	    1.00000	    0.00000	 69.0	 1	    1.10000	    0.90000;
	20631	 1	 14.90	 2.78	 0.0	 0.0	 9	    1.00000	    0.00000	 69.0	 1	    1.10000	    0.90000;
	20632	 1	 39.00	 7.26	 0.0	 0.0	 9	    1.00000	    0.00000	 69.0	 1	    1.10000	    0.90000;
	20633	 1	 8.00	 1.50	 0.0	 0.0	 9	    1.00000	    0.00000	 69.0	 1	    1.10000	    0.90000;
	20634	 1	 3.69	 0.69	 0.0	 0.0	 9	    1.00000	    0.00000	 69.0	 1	    1.10000	    0.90000;
	20635	 1	 4.69	 0.90	 0.0	 0.0	 9	    1.00000	    0.00000	 138.0	 1	    1.10000	    0.90000;
	20636	 1	 4.38	 0.82	 0.0	 0.0	 9	    1.00000	    0.00000	 69.0	 1	    1.10000	    0.90000;
	20637	 1	 8.09	 1.51	 0.0	 0.0	 9	    1.00000	    0.00000	 69.0	 1	    1.10000	    0.90000;
	20638	 1	 0.0	 0.0	 0.0	 0.0	 9	    1.00000	    0.00000	 345.0	 1	    1.10000	    0.90000;
	20639	 1	 0.0	 0.0	 0.0	 0.0	 9	    1.00000	    0.00000	 138.0	 1	    1.10000	    0.90000;
	20640	 1	 10.83	 2.04	 0.0	 0.0	 9	    1.00000	    0.00000	 69.0	 1	    1.10000	    0.90000;
	20641	 1	 10.52	 1.95	 0.0	 0.0	 9	    1.00000	    0.00000	 69.0	 1	    1.10000	    0.90000;
	20642	 1	 0.0	 0.0	 0.0	 0.0	 9	    1.00000	    0.00000	 138.0	 1	    1.10000	    0.90000;
	20643	 1	 0.0	 0.0	 0.0	 0.0	 9	    1.00000	    0.00000	 138.0	 1	    1.10000	    0.90000;
	20644	 1	 0.0	 0.0	 0.0	 0.0	 9	    1.00000	    0.00000	 138.0	 1	    1.10000	    0.90000;
	20645	 1	 12.70	 2.36	 0.0	 0.0	 9	    1.00000	    0.00000	 69.0	 1	    1.10000	    0.90000;
	20646	 1	 6.70	 0.00	 0.0	 0.0	 9	    1.00000	    0.00000	 69.0	 1	    1.10000	    0.90000;
	20647	 1	 8.39	 0.00	 0.0	 0.0	 9	    1.00000	    0.00000	 69.0	 1	    1.10000	    0.90000;
	20648	 1	 5.91	 0.00	 0.0	 0.0	 9	    1.00000	    0.00000	 69.0	 1	    1.10000	    0.90000;
	20649	 1	 3.46	 0.00	 0.0	 0.0	 9	    1.00000	    0.00000	 69.0	 1	    1.10000	    0.90000;
	20650	 1	 0.0	 0.0	 0.0	 0.0	 9	    1.00000	    0.00000	 138.0	 1	    1.10000	    0.90000;
	20651	 1	 22.76	 4.32	 0.0	 0.0	 9	    1.00000	    0.00000	 138.0	 1	    1.10000	    0.90000;
	20652	 1	 0.0	 0.0	 0.0	 0.0	 9	    1.00000	    0.00000	 138.0	 1	    1.10000	    0.90000;
	20653	 1	 0.0	 0.0	 0.0	 0.0	 9	    1.00000	    0.00000	 345.0	 1	    1.10000	    0.90000;
	20654	 1	 7.90	 1.46	 0.0	 0.0	 9	    1.00000	    0.00000	 69.0	 1	    1.10000	    0.90000;
	20655	 1	 0.0	 0.0	 0.0	 0.0	 9	    1.00000	    0.00000	 138.0	 1	    1.10000	    0.90000;
	20656	 1	 0.0	 0.0	 0.0	 0.0	 9	    1.00000	    0.00000	 138.0	 1	    1.10000	    0.90000;
	20657	 1	 12.13	 2.26	 0.0	 0.0	 9	    1.00000	    0.00000	 69.0	 1	    1.10000	    0.90000;
	20658	 1	 8.20	 1.53	 0.0	 0.0	 9	    1.00000	    0.00000	 69.0	 1	    1.10000	    0.90000;
	20659	 1	 6.96	 1.30	 0.0	 0.0	 9	    1.00000	    0.00000	 69.0	 1	    1.10000	    0.90000;
	20660	 1	 0.0	 0.0	 0.0	 0.0	 9	    1.00000	    0.00000	 138.0	 1	    1.10000	    0.90000;
	20661	 1	 0.0	 0.0	 0.0	 0.0	 9	    1.00000	    0.00000	 138.0	 1	    1.10000	    0.90000;
	20662	 1	 0.0	 0.0	 0.0	 0.0	 9	    1.00000	    0.00000	 138.0	 1	    1.10000	    0.90000;
	20663	 1	 6.25	 1.18	 0.0	 0.0	 9	    1.00000	    0.00000	 69.0	 1	    1.10000	    0.90000;
	20664	 1	 13.81	 2.57	 0.0	 0.0	 9	    1.00000	    0.00000	 69.0	 1	    1.10000	    0.90000;
	20665	 1	 6.77	 1.26	 0.0	 0.0	 9	    1.00000	    0.00000	 69.0	 1	    1.10000	    0.90000;
	20666	 1	 8.08	 1.50	 0.0	 0.0	 9	    1.00000	    0.00000	 69.0	 1	    1.10000	    0.90000;
	20667	 1	 7.09	 1.34	 0.0	 0.0	 9	    1.00000	    0.00000	 69.0	 1	    1.10000	    0.90000;
	20668	 1	 7.60	 1.42	 0.0	 0.0	 9	    1.00000	    0.00000	 69.0	 1	    1.10000	    0.90000;
	20669	 1	 11.80	 2.22	 0.0	 0.0	 9	    1.00000	    0.00000	 69.0	 1	    1.10000	    0.90000;
	20670	 1	 33.82	 8.98	 0.0	 0.0	 9	    1.00000	    0.00000	 69.0	 1	    1.10000	    0.90000;
	20671	 1	 0.0	 0.0	 0.0	 0.0	 9	    1.00000	    0.00000	 345.0	 1	    1.10000	    0.90000;
	20672	 1	 0.0	 0.0	 0.0	 0.0	 9	    1.00000	    0.00000	 138.0	 1	    1.10000	    0.90000;
	20673	 1	 0.0	 0.0	 0.0	 0.0	 9	    1.00000	    0.00000	 345.0	 1	    1.10000	    0.90000;
	20674	 1	 8.57	 1.65	 0.0	 0.0	 9	    1.00000	    0.00000	 69.0	 1	    1.10000	    0.90000;
	20675	 1	 4.67	 0.90	 0.0	 0.0	 9	    1.00000	    0.00000	 69.0	 1	    1.10000	    0.90000;
	20676	 1	 4.98	 0.94	 0.0	 0.0	 9	    1.00000	    0.00000	 69.0	 1	    1.10000	    0.90000;
	20677	 1	 9.82	 1.88	 0.0	 0.0	 9	    1.00000	    0.00000	 69.0	 1	    1.10000	    0.90000;
	20678	 1	 0.0	 0.0	 0.0	 0.0	 9	    1.00000	    0.00000	 138.0	 1	    1.10000	    0.90000;
	20679	 1	 8.32	 1.61	 0.0	 0.0	 9	    1.00000	    0.00000	 138.0	 1	    1.10000	    0.90000;
	20680	 1	 0.0	 0.0	 0.0	 0.0	 9	    1.00000	    0.00000	 138.0	 1	    1.10000	    0.90000;
	20681	 1	 0.0	 0.0	 0.0	 0.0	 9	    1.00000	    0.00000	 138.0	 1	    1.10000	    0.90000;
	20682	 1	 7.83	 0.00	 0.0	 0.0	 9	    1.00000	    0.00000	 69.0	 1	    1.10000	    0.90000;
	20683	 1	 5.99	 0.00	 0.0	 0.0	 9	    1.00000	    0.00000	 69.0	 1	    1.10000	    0.90000;
	20684	 1	 7.21	 0.00	 0.0	 0.0	 9	    1.00000	    0.00000	 69.0	 1	    1.10000	    0.90000;
	20685	 1	 7.77	 0.00	 0.0	 0.0	 9	    1.00000	    0.00000	 69.0	 1	    1.10000	    0.90000;
	20686	 1	 0.0	 0.0	 0.0	 0.0	 9	    1.00000	    0.00000	 138.0	 1	    1.10000	    0.90000;
	20687	 1	 8.50	 0.00	 0.0	 0.0	 9	    1.00000	    0.00000	 69.0	 1	    1.10000	    0.90000;
	20688	 1	 10.41	 0.00	 0.0	 0.0	 9	    1.00000	    0.00000	 69.0	 1	    1.10000	    0.90000;
	20689	 1	 29.52	 5.47	 0.0	 0.0	 9	    1.00000	    0.00000	 69.0	 1	    1.10000	    0.90000;
	20690	 1	 0.0	 0.0	 0.0	 0.0	 9	    1.00000	    0.00000	 345.0	 1	    1.10000	    0.90000;
	20691	 1	 8.59	 1.68	 0.0	 0.0	 9	    1.00000	    0.00000	 138.0	 1	    1.10000	    0.90000;
	20692	 1	 3.43	 1.25	 0.0	 0.0	 9	    1.00000	    0.00000	 138.0	 1	    1.10000	    0.90000;
	20693	 1	 0.0	 0.0	 0.0	 0.0	 9	    1.00000	    0.00000	 345.0	 1	    1.10000	    0.90000;
	20694	 1	 3.62	 0.68	 0.0	 0.0	 9	    1.00000	    0.00000	 69.0	 1	    1.10000	    0.90000;
	20695	 1	 0.0	 0.0	 0.0	 0.0	 9	    1.00000	    0.00000	 345.0	 1	    1.10000	    0.90000;
	20696	 1	 0.0	 0.0	 0.0	 0.0	 9	    1.00000	    0.00000	 345.0	 1	    1.10000	    0.90000;
	20697	 1	 0.0	 0.0	 0.0	 0.0	 9	    1.00000	    0.00000	 345.0	 1	    1.10000	    0.90000;
	20698	 1	 0.0	 0.0	 0.0	 0.0	 9	    1.00000	    0.00000	 345.0	 1	    1.10000	    0.90000;
	20699	 1	 0.0	 0.0	 0.0	 0.0	 9	    1.00000	    0.00000	 138.0	 1	    1.10000	    0.90000;
	20700	 1	 0.0	 0.0	 0.0	 0.0	 9	    1.00000	    0.00000	 138.0	 1	    1.10000	    0.90000;
	20701	 1	 7.91	 2.80	 0.0	 0.0	 9	    1.00000	    0.00000	 69.0	 1	    1.10000	    0.90000;
	20702	 1	 0.0	 0.0	 0.0	 0.0	 9	    1.00000	    0.00000	 345.0	 1	    1.10000	    0.90000;
	20703	 1	 37.33	 9.32	 0.0	 0.0	 9	    1.00000	    0.00000	 69.0	 1	    1.10000	    0.90000;
	20704	 1	 13.16	 4.31	 0.0	 0.0	 9	    1.00000	    0.00000	 69.0	 1	    1.10000	    0.90000;
	20705	 1	 0.0	 0.0	 0.0	 0.0	 9	    1.00000	    0.00000	 345.0	 1	    1.10000	    0.90000;
	20706	 1	 0.0	 0.0	 0.0	 0.0	 9	    1.00000	    0.00000	 138.0	 1	    1.10000	    0.90000;
	20707	 1	 11.12	 3.72	 0.0	 0.0	 9	    1.00000	    0.00000	 138.0	 1	    1.10000	    0.90000;
	20708	 1	 15.80	 5.01	 0.0	 0.0	 9	    1.00000	    0.00000	 69.0	 1	    1.10000	    0.90000;
	20709	 1	 6.29	 2.53	 0.0	 0.0	 9	    1.00000	    0.00000	 69.0	 1	    1.10000	    0.90000;
	20710	 1	 0.0	 0.0	 0.0	 0.0	 9	    1.00000	    0.00000	 345.0	 1	    1.10000	    0.90000;
	20711	 1	 9.29	 3.57	 0.0	 0.0	 9	    1.00000	    0.00000	 69.0	 1	    1.10000	    0.90000;
	20712	 1	 15.41	 4.31	 0.0	 0.0	 9	    1.00000	    0.00000	 138.0	 1	    1.10000	    0.90000;
	20713	 1	 0.0	 0.0	 0.0	 0.0	 9	    1.00000	    0.00000	 345.0	 1	    1.10000	    0.90000;
	20714	 1	 27.88	 7.42	 0.0	 0.0	 9	    1.00000	    0.00000	 138.0	 1	    1.10000	    0.90000;
	20715	 1	 12.51	 2.92	 0.0	 0.0	 9	    1.00000	    0.00000	 138.0	 1	    1.10000	    0.90000;