%%%%%%%%%%%%%%%%%%%%%%%%%%%%%%%%%%%%%%%%%%%%%%%%%%%%%%%%%%%%%%%%%%%%%%%%%%%
%%%%                                                                  %%%%%
%%%%    IEEE PES Power Grid Library - Optimal Power Flow - v21.07     %%%%%
%%%%          (https://github.com/power-grid-lib/pglib-opf)           %%%%%
%%%%             Benchmark Group - Active Power Increase              %%%%%
%%%%                         29 - July - 2021                         %%%%%
%%%%                                                                  %%%%%
%%%%%%%%%%%%%%%%%%%%%%%%%%%%%%%%%%%%%%%%%%%%%%%%%%%%%%%%%%%%%%%%%%%%%%%%%%%
function mpc = pglib_opf_case240_pserc__api
mpc.version = '2';
mpc.baseMVA = 100.0;

%% bus data
%	bus_i	type	Pd	Qd	Gs	Bs	area	Vm	Va	baseKV	zone	Vmax	Vmin
mpc.bus = [
	1001	 1	 0.0	 0.0	 0.0	 0.0	 10	    1.00000	    0.00000	 500.0	 1	    1.10000	    0.90000;
	1002	 1	 226.84	 -37.47	 0.0	 0.0	 10	    1.00000	    0.00000	 345.0	 1	    1.10000	    0.90000;
	1003	 1	 2825.79	 366.86	 0.0	 0.0	 10	    1.00000	    0.00000	 230.0	 1	    1.10000	    0.90000;
	1004	 1	 1362.09	 5.52	 0.0	 0.0	 10	    1.00000	    0.00000	 345.0	 1	    1.10000	    0.90000;
	1032	 2	 0.0	 0.0	 0.0	 0.0	 10	    1.00000	    0.00000	 20.0	 1	    1.10000	    0.90000;
	1034	 2	 0.0	 0.0	 0.0	 0.0	 10	    1.00000	    0.00000	 20.0	 1	    1.10000	    0.90000;
	1101	 1	 4527.37	 -137.04	 0.0	 0.0	 10	    1.00000	    0.00000	 500.0	 1	    1.10000	    0.90000;
	1102	 1	 231.55	 23.00	 0.0	 0.0	 10	    1.00000	    0.00000	 345.0	 1	    1.10000	    0.90000;
	1131	 2	 0.0	 0.0	 0.0	 0.0	 10	    1.00000	    0.00000	 20.0	 1	    1.10000	    0.90000;
	1201	 1	 166.99	 -2.01	 0.0	 0.0	 10	    1.00000	    0.00000	 500.0	 1	    1.10000	    0.90000;
	1202	 1	 1149.06	 287.13	 0.0	 0.0	 10	    1.00000	    0.00000	 500.0	 1	    1.10000	    0.90000;
	1232	 2	 0.0	 0.0	 0.0	 0.0	 10	    1.00000	    0.00000	 20.0	 1	    1.10000	    0.90000;
	1301	 1	 3549.46	 352.83	 0.0	 0.0	 10	    1.00000	    0.00000	 500.0	 1	    1.10000	    0.90000;
	1302	 1	 23.04	 2.30	 0.0	 0.0	 10	    1.00000	    0.00000	 500.0	 1	    1.10000	    0.90000;
	1303	 1	 8182.33	 813.35	 0.0	 0.0	 10	    1.00000	    0.00000	 345.0	 1	    1.10000	    0.90000;
	1331	 2	 0.0	 0.0	 0.0	 0.0	 10	    1.00000	    0.00000	 20.0	 1	    1.10000	    0.90000;
	1333	 2	 0.0	 0.0	 0.0	 0.0	 10	    1.00000	    0.00000	 20.0	 1	    1.10000	    0.90000;
	1401	 1	 8576.54	 1524.59	 0.0	 0.0	 10	    1.00000	    0.00000	 500.0	 1	    1.10000	    0.90000;
	1402	 1	 5366.63	 -600.16	 0.0	 0.0	 10	    1.00000	    0.00000	 500.0	 1	    1.10000	    0.90000;
	1403	 1	 0.0	 0.0	 0.0	 0.0	 10	    1.00000	    0.00000	 230.0	 1	    1.10000	    0.90000;
	1431	 2	 0.0	 0.0	 0.0	 0.0	 10	    1.00000	    0.00000	 20.0	 1	    1.10000	    0.90000;
	2000	 1	 2896.48	 287.92	 0.0	 0.0	 20	    1.00000	    0.00000	 230.0	 1	    1.10000	    0.90000;
	2030	 2	 0.0	 0.0	 0.0	 0.0	 20	    1.00000	    0.00000	 20.0	 1	    1.10000	    0.90000;
	2100	 1	 368.95	 54.83	 0.0	 0.0	 21	    1.00000	    0.00000	 230.0	 1	    1.10000	    0.90000;
	2130	 2	 0.0	 0.0	 0.0	 0.0	 21	    1.00000	    0.00000	 20.0	 1	    1.10000	    0.90000;
	2201	 1	 0.0	 0.0	 0.0	 0.0	 22	    1.00000	    0.00000	 500.0	 1	    1.10000	    0.90000;
	2202	 1	 2028.74	 268.56	 0.0	 0.0	 22	    1.00000	    0.00000	 230.0	 1	    1.10000	    0.90000;
	2203	 1	 2242.12	 278.27	 0.0	 0.0	 22	    1.00000	    0.00000	 230.0	 1	    1.10000	    0.90000;
	2233	 2	 0.0	 0.0	 0.0	 0.0	 22	    1.00000	    0.00000	 20.0	 1	    1.10000	    0.90000;
	2301	 1	 0.0	 0.0	 0.0	 0.0	 22	    1.00000	    0.00000	 500.0	 1	    1.10000	    0.90000;
	2302	 1	 0.0	 0.0	 0.0	 0.0	 22	    1.00000	    0.00000	 230.0	 1	    1.10000	    0.90000;
	2332	 2	 0.0	 0.0	 0.0	 0.0	 22	    1.00000	    0.00000	 20.0	 1	    1.10000	    0.90000;
	2400	 1	 1106.65	 76.66	 0.0	 0.0	 24	    1.00000	    0.00000	 500.0	 1	    1.10000	    0.90000;
	2401	 1	 1157.92	 105.21	 0.0	 0.0	 24	    1.00000	    0.00000	 500.0	 1	    1.10000	    0.90000;
	2402	 1	 1417.30	 81.98	 0.0	 0.0	 24	    1.00000	    0.00000	 500.0	 1	    1.10000	    0.90000;
	2403	 1	 1377.91	 38.54	 0.0	 0.0	 24	    1.00000	    0.00000	 500.0	 1	    1.10000	    0.90000;
	2404	 1	 0.0	 0.0	 0.0	 0.0	 24	    1.00000	    0.00000	 500.0	 1	    1.10000	    0.90000;
	2405	 1	 1082.23	 22.90	 0.0	 0.0	 24	    1.00000	    0.00000	 230.0	 1	    1.10000	    0.90000;
	2406	 1	 737.40	 -40.75	 0.0	 0.0	 24	    1.00000	    0.00000	 230.0	 1	    1.10000	    0.90000;
	2407	 1	 1732.77	 -36.53	 0.0	 0.0	 24	    1.00000	    0.00000	 230.0	 1	    1.10000	    0.90000;
	2408	 1	 1743.28	 -72.62	 0.0	 0.0	 24	    1.00000	    0.00000	 230.0	 1	    1.10000	    0.90000;
	2409	 1	 1601.78	 -86.70	 0.0	 0.0	 24	    1.00000	    0.00000	 230.0	 1	    1.10000	    0.90000;
	2410	 1	 2069.21	 58.18	 0.0	 0.0	 24	    1.00000	    0.00000	 230.0	 1	    1.10000	    0.90000;
	2411	 1	 1427.28	 75.95	 0.0	 0.0	 24	    1.00000	    0.00000	 230.0	 1	    1.10000	    0.90000;
	2438	 2	 0.0	 0.0	 0.0	 0.0	 24	    1.00000	    0.00000	 20.0	 1	    1.10000	    0.90000;
	2501	 1	 0.0	 0.0	 0.0	 0.0	 25	    1.00000	    0.00000	 500.0	 1	    1.10000	    0.90000;
	2502	 1	 2369.15	 -91.91	 0.0	 0.0	 25	    1.00000	    0.00000	 230.0	 1	    1.10000	    0.90000;
	2503	 1	 2422.40	 201.99	 0.0	 0.0	 25	    1.00000	    0.00000	 230.0	 1	    1.10000	    0.90000;
	2533	 2	 0.0	 0.0	 0.0	 0.0	 25	    1.00000	    0.00000	 20.0	 1	    1.10000	    0.90000;
	2600	 1	 -1863.90	 0.00	 0.0	 0.0	 90	    1.00000	    0.00000	 500.0	 1	    1.10000	    0.90000;
	2601	 1	 0.0	 0.0	 0.0	 0.0	 26	    1.00000	    0.00000	 500.0	 1	    1.10000	    0.90000;
	2602	 1	 130.28	 12.96	 0.0	 0.0	 26	    1.00000	    0.00000	 500.0	 1	    1.10000	    0.90000;
	2603	 1	 0.0	 0.0	 0.0	 0.0	 26	    1.00000	    0.00000	 500.0	 1	    1.10000	    0.90000;
	2604	 1	 2050.78	 0.00	 0.0	 0.0	 90	    1.00000	    0.00000	 345.0	 1	    1.10000	    0.90000;
	2605	 1	 0.0	 0.0	 0.0	 0.0	 26	    1.00000	    0.00000	 287.0	 1	    1.10000	    0.90000;
	2606	 1	 0.0	 0.0	 0.0	 0.0	 26	    1.00000	    0.00000	 287.0	 1	    1.10000	    0.90000;
	2607	 1	 0.0	 0.0	 0.0	 0.0	 26	    1.00000	    0.00000	 287.0	 1	    1.10000	    0.90000;
	2608	 1	 130.28	 12.96	 0.0	 0.0	 26	    1.00000	    0.00000	 230.0	 1	    1.10000	    0.90000;
	2609	 1	 175.88	 26.80	 0.0	 0.0	 26	    1.00000	    0.00000	 230.0	 1	    1.10000	    0.90000;
	2610	 1	 130.28	 12.96	 0.0	 0.0	 26	    1.00000	    0.00000	 230.0	 1	    1.10000	    0.90000;
	2611	 1	 130.28	 12.96	 0.0	 0.0	 26	    1.00000	    0.00000	 230.0	 1	    1.10000	    0.90000;
	2612	 1	 157.64	 24.82	 0.0	 0.0	 26	    1.00000	    0.00000	 230.0	 1	    1.10000	    0.90000;
	2613	 1	 416.91	 64.53	 0.0	 0.0	 26	    1.00000	    0.00000	 230.0	 1	    1.10000	    0.90000;
	2614	 1	 179.79	 27.80	 0.0	 0.0	 26	    1.00000	    0.00000	 230.0	 1	    1.10000	    0.90000;
	2615	 1	 1052.43	 131.15	 0.0	 0.0	 26	    1.00000	    0.00000	 230.0	 1	    1.10000	    0.90000;
	2616	 1	 152.43	 23.83	 0.0	 0.0	 26	    1.00000	    0.00000	 230.0	 1	    1.10000	    0.90000;
	2617	 1	 157.64	 24.82	 0.0	 0.0	 26	    1.00000	    0.00000	 230.0	 1	    1.10000	    0.90000;
	2618	 1	 881.30	 -6.16	 0.0	 0.0	 26	    1.00000	    0.00000	 230.0	 1	    1.10000	    0.90000;
	2619	 1	 -2773.83	 0.00	 0.0	 0.0	 90	    1.00000	    0.00000	 230.0	 1	    1.10000	    0.90000;
	2620	 1	 267.34	 17.47	 0.0	 0.0	 26	    1.00000	    0.00000	 230.0	 1	    1.10000	    0.90000;
	2621	 1	 235.49	 -62.74	 0.0	 0.0	 26	    1.00000	    0.00000	 138.0	 1	    1.10000	    0.90000;
	2630	 2	 0.0	 0.0	 0.0	 0.0	 26	    1.00000	    0.00000	 20.0	 1	    1.10000	    0.90000;
	2631	 2	 0.0	 0.0	 0.0	 0.0	 26	    1.00000	    0.00000	 20.0	 1	    1.10000	    0.90000;
	2634	 2	 0.0	 0.0	 0.0	 0.0	 90	    1.00000	    0.00000	 20.0	 1	    1.10000	    0.90000;
	2637	 2	 0.0	 0.0	 0.0	 0.0	 26	    1.00000	    0.00000	 20.0	 1	    1.10000	    0.90000;
	2638	 2	 0.0	 0.0	 0.0	 0.0	 26	    1.00000	    0.00000	 20.0	 1	    1.10000	    0.90000;
	2901	 1	 0.0	 0.0	 0.0	 0.0	 24	    1.00000	    0.00000	 500.0	 1	    1.10000	    0.90000;
	2902	 1	 0.0	 0.0	 0.0	 0.0	 24	    1.00000	    0.00000	 500.0	 1	    1.10000	    0.90000;
	3101	 1	 447.89	 52.83	 0.0	 0.0	 31	    1.00000	    0.00000	 230.0	 1	    1.10000	    0.90000;
	3102	 1	 209.26	 24.93	 0.0	 0.0	 31	    1.00000	    0.00000	 230.0	 1	    1.10000	    0.90000;
	3103	 1	 550.65	 59.78	 0.0	 0.0	 32	    1.00000	    0.00000	 230.0	 1	    1.10000	    0.90000;
	3104	 1	 406.77	 40.13	 0.0	 0.0	 31	    1.00000	    0.00000	 115.0	 1	    1.10000	    0.90000;
	3105	 1	 314.03	 49.09	 0.0	 0.0	 31	    1.00000	    0.00000	 115.0	 1	    1.10000	    0.90000;
	3133	 2	 0.0	 0.0	 0.0	 0.0	 32	    1.00000	    0.00000	 20.0	 1	    1.10000	    0.90000;
	3135	 2	 0.0	 0.0	 0.0	 0.0	 31	    1.00000	    0.00000	 20.0	 1	    1.10000	    0.90000;
	3201	 1	 606.91	 97.85	 0.0	 0.0	 32	    1.00000	    0.00000	 230.0	 1	    1.10000	    0.90000;
	3202	 1	 769.24	 83.47	 0.0	 0.0	 32	    1.00000	    0.00000	 230.0	 1	    1.10000	    0.90000;
	3203	 1	 862.31	 158.48	 0.0	 0.0	 32	    1.00000	    0.00000	 230.0	 1	    1.10000	    0.90000;
	3204	 1	 877.65	 95.31	 0.0	 0.0	 32	    1.00000	    0.00000	 230.0	 1	    1.10000	    0.90000;
	3205	 1	 716.59	 77.78	 0.0	 0.0	 32	    1.00000	    0.00000	 230.0	 1	    1.10000	    0.90000;
	3234	 2	 0.0	 0.0	 0.0	 0.0	 32	    1.00000	    0.00000	 20.0	 1	    1.10000	    0.90000;
	3301	 1	 0.0	 0.0	 0.0	 0.0	 32	    1.00000	    0.00000	 500.0	 1	    1.10000	    0.90000;
	3302	 1	 453.17	 85.79	 0.0	 0.0	 32	    1.00000	    0.00000	 230.0	 1	    1.10000	    0.90000;
	3303	 1	 820.72	 150.72	 0.0	 0.0	 32	    1.00000	    0.00000	 230.0	 1	    1.10000	    0.90000;
	3304	 1	 700.09	 122.62	 0.0	 0.0	 32	    1.00000	    0.00000	 230.0	 1	    1.10000	    0.90000;
	3305	 1	 564.71	 61.22	 0.0	 0.0	 32	    1.00000	    0.00000	 230.0	 1	    1.10000	    0.90000;
	3333	 2	 0.0	 0.0	 0.0	 0.0	 32	    1.00000	    0.00000	 20.0	 1	    1.10000	    0.90000;
	3401	 1	 731.88	 135.91	 0.0	 0.0	 34	    1.00000	    0.00000	 230.0	 1	    1.10000	    0.90000;
	3402	 1	 0.0	 0.0	 0.0	 0.0	 34	    1.00000	    0.00000	 230.0	 1	    1.10000	    0.90000;
	3403	 1	 677.10	 73.58	 0.0	 0.0	 34	    1.00000	    0.00000	 230.0	 1	    1.10000	    0.90000;
	3404	 1	 575.39	 62.08	 0.0	 0.0	 34	    1.00000	    0.00000	 230.0	 1	    1.10000	    0.90000;
	3405	 1	 589.09	 63.72	 0.0	 0.0	 34	    1.00000	    0.00000	 230.0	 1	    1.10000	    0.90000;
	3432	 2	 0.0	 0.0	 0.0	 0.0	 34	    1.00000	    0.00000	 20.0	 1	    1.10000	    0.90000;
	3433	 2	 0.0	 0.0	 0.0	 0.0	 34	    1.00000	    0.00000	 20.0	 1	    1.10000	    0.90000;
	3501	 1	 820.20	 89.02	 0.0	 0.0	 35	    1.00000	    0.00000	 230.0	 1	    1.10000	    0.90000;
	3531	 2	 0.0	 0.0	 0.0	 0.0	 35	    1.00000	    0.00000	 20.0	 1	    1.10000	    0.90000;
	3601	 1	 137.60	 14.84	 0.0	 0.0	 36	    1.00000	    0.00000	 115.0	 1	    1.10000	    0.90000;
	3631	 2	 0.0	 0.0	 0.0	 0.0	 36	    1.00000	    0.00000	 20.0	 1	    1.10000	    0.90000;
	3701	 1	 416.06	 15.85	 0.0	 0.0	 37	    1.00000	    0.00000	 115.0	 1	    1.10000	    0.90000;
	3731	 2	 0.0	 0.0	 0.0	 0.0	 37	    1.00000	    0.00000	 20.0	 1	    1.10000	    0.90000;
	3801	 1	 250.94	 47.41	 0.0	 0.0	 38	    1.00000	    0.00000	 500.0	 1	    1.10000	    0.90000;
	3802	 1	 0.0	 0.0	 0.0	 0.0	 38	    1.00000	    0.00000	 500.0	 1	    1.10000	    0.90000;
	3803	 1	 0.0	 0.0	 0.0	 0.0	 38	    1.00000	    0.00000	 500.0	 1	    1.10000	    0.90000;
	3804	 1	 293.48	 55.32	 0.0	 0.0	 38	    1.00000	    0.00000	 230.0	 1	    1.10000	    0.90000;
	3805	 1	 655.34	 163.11	 0.0	 0.0	 38	    1.00000	    0.00000	 230.0	 1	    1.10000	    0.90000;
	3806	 1	 380.02	 41.37	 0.0	 0.0	 38	    1.00000	    0.00000	 230.0	 1	    1.10000	    0.90000;
	3831	 2	 0.0	 0.0	 0.0	 0.0	 38	    1.00000	    0.00000	 20.0	 1	    1.10000	    0.90000;
	3835	 2	 0.0	 0.0	 0.0	 0.0	 38	    1.00000	    0.00000	 20.0	 1	    1.10000	    0.90000;
	3836	 2	 0.0	 0.0	 0.0	 0.0	 38	    1.00000	    0.00000	 20.0	 1	    1.10000	    0.90000;
	3891	 1	 0.0	 0.0	 0.0	 0.0	 38	    1.00000	    0.00000	 500.0	 1	    1.10000	    0.90000;
	3892	 1	 0.0	 0.0	 0.0	 0.0	 38	    1.00000	    0.00000	 500.0	 1	    1.10000	    0.90000;
	3893	 1	 0.0	 0.0	 0.0	 0.0	 38	    1.00000	    0.00000	 500.0	 1	    1.10000	    0.90000;
	3894	 1	 0.0	 0.0	 0.0	 0.0	 38	    1.00000	    0.00000	 500.0	 1	    1.10000	    0.90000;
	3895	 1	 0.0	 0.0	 0.0	 0.0	 38	    1.00000	    0.00000	 500.0	 1	    1.10000	    0.90000;
	3896	 1	 0.0	 0.0	 0.0	 0.0	 38	    1.00000	    0.00000	 500.0	 1	    1.10000	    0.90000;
	3897	 1	 0.0	 0.0	 0.0	 0.0	 38	    1.00000	    0.00000	 500.0	 1	    1.10000	    0.90000;
	3901	 1	 0.0	 0.0	 0.0	 0.0	 39	    1.00000	    0.00000	 500.0	 1	    1.10000	    0.90000;
	3902	 1	 200.77	 38.25	 0.0	 0.0	 39	    1.00000	    0.00000	 500.0	 1	    1.10000	    0.90000;
	3903	 1	 279.84	 30.27	 0.0	 0.0	 39	    1.00000	    0.00000	 500.0	 1	    1.10000	    0.90000;
	3904	 1	 0.0	 0.0	 0.0	 0.0	 39	    1.00000	    0.00000	 500.0	 1	    1.10000	    0.90000;
	3905	 1	 0.0	 0.0	 0.0	 0.0	 39	    1.00000	    0.00000	 500.0	 1	    1.10000	    0.90000;
	3906	 1	 0.0	 0.0	 0.0	 0.0	 39	    1.00000	    0.00000	 500.0	 1	    1.10000	    0.90000;
	3907	 1	 605.44	 63.07	 0.0	 0.0	 39	    1.00000	    0.00000	 230.0	 1	    1.10000	    0.90000;
	3908	 1	 262.82	 24.72	 0.0	 0.0	 39	    1.00000	    0.00000	 230.0	 1	    1.10000	    0.90000;
	3909	 1	 224.35	 39.78	 0.0	 0.0	 39	    1.00000	    0.00000	 230.0	 1	    1.10000	    0.90000;
	3910	 1	 317.36	 34.44	 0.0	 0.0	 39	    1.00000	    0.00000	 230.0	 1	    1.10000	    0.90000;
	3911	 1	 305.94	 47.11	 0.0	 0.0	 39	    1.00000	    0.00000	 230.0	 1	    1.10000	    0.90000;
	3912	 1	 174.50	 -0.63	 0.0	 0.0	 39	    1.00000	    0.00000	 230.0	 1	    1.10000	    0.90000;
	3913	 1	 432.46	 43.44	 0.0	 0.0	 39	    1.00000	    0.00000	 230.0	 1	    1.10000	    0.90000;
	3914	 1	 298.88	 52.55	 0.0	 0.0	 39	    1.00000	    0.00000	 230.0	 1	    1.10000	    0.90000;
	3915	 1	 333.92	 53.40	 0.0	 0.0	 39	    1.00000	    0.00000	 230.0	 1	    1.10000	    0.90000;
	3916	 1	 155.00	 0.00	 0.0	 0.0	 39	    1.00000	    0.00000	 230.0	 1	    1.10000	    0.90000;
	3917	 1	 312.57	 43.99	 0.0	 0.0	 39	    1.00000	    0.00000	 230.0	 1	    1.10000	    0.90000;
	3918	 1	 418.99	 75.46	 0.0	 0.0	 39	    1.00000	    0.00000	 230.0	 1	    1.10000	    0.90000;
	3919	 1	 242.13	 24.09	 0.0	 0.0	 39	    1.00000	    0.00000	 230.0	 1	    1.10000	    0.90000;
	3920	 1	 226.37	 23.68	 0.0	 0.0	 39	    1.00000	    0.00000	 230.0	 1	    1.10000	    0.90000;
	3921	 1	 198.01	 34.82	 0.0	 0.0	 39	    1.00000	    0.00000	 230.0	 1	    1.10000	    0.90000;
	3922	 1	 332.59	 31.92	 0.0	 0.0	 39	    1.00000	    0.00000	 230.0	 1	    1.10000	    0.90000;
	3923	 1	 523.69	 67.02	 0.0	 0.0	 39	    1.00000	    0.00000	 230.0	 1	    1.10000	    0.90000;
	3924	 1	 436.32	 47.16	 0.0	 0.0	 39	    1.00000	    0.00000	 230.0	 1	    1.10000	    0.90000;
	3925	 1	 0.0	 0.0	 0.0	 0.0	 39	    1.00000	    0.00000	 115.0	 1	    1.10000	    0.90000;
	3926	 1	 350.85	 16.67	 0.0	 0.0	 39	    1.00000	    0.00000	 115.0	 1	    1.10000	    0.90000;
	3931	 2	 0.0	 0.0	 0.0	 0.0	 39	    1.00000	    0.00000	 20.0	 1	    1.10000	    0.90000;
	3932	 2	 0.0	 0.0	 0.0	 0.0	 39	    1.00000	    0.00000	 20.0	 1	    1.10000	    0.90000;
	3933	 3	 0.0	 0.0	 0.0	 0.0	 39	    1.00000	    0.00000	 20.0	 1	    1.10000	    0.90000;
	4001	 1	 0.0	 0.0	 0.0	 0.0	 40	    1.00000	    0.00000	 500.0	 1	    1.10000	    0.90000;
	4002	 1	 221.36	 22.00	 0.0	 0.0	 40	    1.00000	    0.00000	 500.0	 1	    1.10000	    0.90000;
	4003	 1	 0.0	 0.0	 0.0	 0.0	 40	    1.00000	    0.00000	 500.0	 1	    1.10000	    0.90000;
	4004	 1	 354.91	 35.30	 0.0	 0.0	 40	    1.00000	    0.00000	 500.0	 1	    1.10000	    0.90000;
	4005	 1	 630.05	 157.42	 0.0	 0.0	 40	    1.00000	    0.00000	 500.0	 1	    1.10000	    0.90000;
	4006	 1	 0.0	 0.0	 0.0	 0.0	 40	    1.00000	    0.00000	 500.0	 1	    1.10000	    0.90000;
	4007	 1	 0.0	 0.0	 0.0	 0.0	 40	    1.00000	    0.00000	 500.0	 1	    1.10000	    0.90000;
	4008	 1	 374.19	 37.20	 0.0	 0.0	 40	    1.00000	    0.00000	 345.0	 1	    1.10000	    0.90000;
	4009	 1	 2898.52	 431.40	 0.0	 0.0	 40	    1.00000	    0.00000	 230.0	 1	    1.10000	    0.90000;
	4010	 1	 3133.61	 0.00	 0.0	 0.0	 90	    1.00000	    0.00000	 230.0	 1	    1.10000	    0.90000;
	4031	 2	 0.0	 0.0	 0.0	 0.0	 40	    1.00000	    0.00000	 20.0	 1	    1.10000	    0.90000;
	4035	 2	 0.0	 0.0	 0.0	 0.0	 40	    1.00000	    0.00000	 20.0	 1	    1.10000	    0.90000;
	4039	 2	 0.0	 0.0	 0.0	 0.0	 40	    1.00000	    0.00000	 20.0	 1	    1.10000	    0.90000;
	4090	 1	 0.0	 0.0	 0.0	 0.0	 40	    1.00000	    0.00000	 500.0	 1	    1.10000	    0.90000;
	4091	 1	 0.0	 0.0	 0.0	 0.0	 40	    1.00000	    0.00000	 500.0	 1	    1.10000	    0.90000;
	4092	 1	 0.0	 0.0	 0.0	 0.0	 40	    1.00000	    0.00000	 500.0	 1	    1.10000	    0.90000;
	4093	 1	 0.0	 0.0	 0.0	 0.0	 40	    1.00000	    0.00000	 500.0	 1	    1.10000	    0.90000;
	4094	 1	 0.0	 0.0	 0.0	 0.0	 40	    1.00000	    0.00000	 500.0	 1	    1.10000	    0.90000;
	4095	 1	 0.0	 0.0	 0.0	 0.0	 40	    1.00000	    0.00000	 500.0	 1	    1.10000	    0.90000;
	4096	 1	 0.0	 0.0	 0.0	 0.0	 40	    1.00000	    0.00000	 500.0	 1	    1.10000	    0.90000;
	4097	 1	 0.0	 0.0	 0.0	 0.0	 40	    1.00000	    0.00000	 500.0	 1	    1.10000	    0.90000;
	4101	 1	 1305.77	 129.78	 0.0	 0.0	 40	    1.00000	    0.00000	 500.0	 1	    1.10000	    0.90000;
	4102	 1	 630.75	 68.66	 0.0	 0.0	 40	    1.00000	    0.00000	 500.0	 1	    1.10000	    0.90000;
	4103	 1	 15.26	 1.51	 0.0	 0.0	 40	    1.00000	    0.00000	 500.0	 1	    1.10000	    0.90000;
	4104	 1	 3317.18	 329.74	 0.0	 0.0	 40	    1.00000	    0.00000	 230.0	 1	    1.10000	    0.90000;
	4131	 2	 0.0	 0.0	 0.0	 0.0	 40	    1.00000	    0.00000	 20.0	 1	    1.10000	    0.90000;
	4132	 2	 0.0	 0.0	 0.0	 0.0	 40	    1.00000	    0.00000	 20.0	 1	    1.10000	    0.90000;
	4201	 1	 7562.30	 461.01	 0.0	 0.0	 40	    1.00000	    0.00000	 500.0	 1	    1.10000	    0.90000;
	4202	 1	 5981.75	 594.63	 0.0	 0.0	 40	    1.00000	    0.00000	 500.0	 1	    1.10000	    0.90000;
	4203	 1	 5747.35	 571.33	 0.0	 0.0	 40	    1.00000	    0.00000	 500.0	 1	    1.10000	    0.90000;
	4204	 1	 1331.35	 132.34	 0.0	 0.0	 40	    1.00000	    0.00000	 500.0	 1	    1.10000	    0.90000;
	4231	 2	 0.0	 0.0	 0.0	 0.0	 40	    1.00000	    0.00000	 20.0	 1	    1.10000	    0.90000;
	4232	 2	 0.0	 0.0	 0.0	 0.0	 40	    1.00000	    0.00000	 20.0	 1	    1.10000	    0.90000;
	5001	 1	 9939.38	 1721.38	 0.0	 0.0	 50	    1.00000	    0.00000	 500.0	 1	    1.10000	    0.90000;
	5002	 1	 11815.87	 1174.36	 0.0	 0.0	 50	    1.00000	    0.00000	 500.0	 1	    1.10000	    0.90000;
	5003	 1	 807.35	 80.25	 0.0	 0.0	 50	    1.00000	    0.00000	 230.0	 1	    1.10000	    0.90000;
	5004	 1	 0.0	 0.0	 0.0	 0.0	 50	    1.00000	    0.00000	 230.0	 1	    1.10000	    0.90000;
	5031	 2	 0.0	 0.0	 0.0	 0.0	 50	    1.00000	    0.00000	 20.0	 1	    1.10000	    0.90000;
	5032	 2	 0.0	 0.0	 0.0	 0.0	 50	    1.00000	    0.00000	 20.0	 1	    1.10000	    0.90000;
	6101	 1	 0.0	 0.0	 0.0	 0.0	 61	    1.00000	    0.00000	 500.0	 1	    1.10000	    0.90000;
	6102	 1	 1053.14	 -345.28	 0.0	 0.0	 61	    1.00000	    0.00000	 345.0	 1	    1.10000	    0.90000;
	6103	 1	 514.27	 51.11	 0.0	 0.0	 61	    1.00000	    0.00000	 345.0	 1	    1.10000	    0.90000;
	6104	 1	 2224.28	 221.09	 0.0	 0.0	 61	    1.00000	    0.00000	 230.0	 1	    1.10000	    0.90000;
	6132	 2	 0.0	 0.0	 0.0	 0.0	 61	    1.00000	    0.00000	 20.0	 1	    1.10000	    0.90000;
	6201	 1	 270.10	 26.86	 0.0	 0.0	 60	    1.00000	    0.00000	 500.0	 1	    1.10000	    0.90000;
	6202	 1	 116.43	 13.53	 0.0	 0.0	 60	    1.00000	    0.00000	 500.0	 1	    1.10000	    0.90000;
	6203	 1	 1459.72	 145.09	 0.0	 0.0	 60	    1.00000	    0.00000	 230.0	 1	    1.10000	    0.90000;
	6204	 1	 1573.83	 156.46	 0.0	 0.0	 60	    1.00000	    0.00000	 230.0	 1	    1.10000	    0.90000;
	6205	 1	 642.08	 86.34	 0.0	 0.0	 60	    1.00000	    0.00000	 230.0	 1	    1.10000	    0.90000;
	6231	 2	 0.0	 0.0	 0.0	 0.0	 60	    1.00000	    0.00000	 20.0	 1	    1.10000	    0.90000;
	6235	 2	 0.0	 0.0	 0.0	 0.0	 60	    1.00000	    0.00000	 20.0	 1	    1.10000	    0.90000;
	6301	 1	 677.64	 67.36	 0.0	 0.0	 60	    1.00000	    0.00000	 345.0	 1	    1.10000	    0.90000;
	6302	 1	 776.64	 77.22	 0.0	 0.0	 60	    1.00000	    0.00000	 345.0	 1	    1.10000	    0.90000;
	6303	 1	 979.76	 97.40	 0.0	 0.0	 60	    1.00000	    0.00000	 230.0	 1	    1.10000	    0.90000;
	6304	 1	 0.0	 0.0	 0.0	 0.0	 60	    1.00000	    0.00000	 230.0	 1	    1.10000	    0.90000;
	6305	 1	 79.04	 19.75	 0.0	 0.0	 60	    1.00000	    0.00000	 230.0	 1	    1.10000	    0.90000;
	6333	 2	 0.0	 0.0	 0.0	 0.0	 60	    1.00000	    0.00000	 20.0	 1	    1.10000	    0.90000;
	6335	 2	 0.0	 0.0	 0.0	 0.0	 60	    1.00000	    0.00000	 20.0	 1	    1.10000	    0.90000;
	6401	 1	 2194.64	 218.15	 0.0	 0.0	 64	    1.00000	    0.00000	 345.0	 1	    1.10000	    0.90000;
	6402	 1	 357.62	 35.57	 0.0	 0.0	 64	    1.00000	    0.00000	 115.0	 1	    1.10000	    0.90000;
	6403	 1	 2.89	 0.27	 0.0	 0.0	 64	    1.00000	    0.00000	 345.0	 1	    1.10000	    0.90000;
	6404	 1	 38.03	 3.77	 0.0	 0.0	 64	    1.00000	    0.00000	 345.0	 1	    1.10000	    0.90000;
	6433	 2	 0.0	 0.0	 0.0	 0.0	 64	    1.00000	    0.00000	 20.0	 1	    1.10000	    0.90000;
	6501	 1	 256.61	 64.13	 0.0	 0.0	 60	    1.00000	    0.00000	 345.0	 1	    1.10000	    0.90000;
	6502	 1	 2041.37	 277.67	 0.0	 0.0	 60	    1.00000	    0.00000	 345.0	 1	    1.10000	    0.90000;
	6503	 1	 578.92	 144.60	 0.0	 0.0	 60	    1.00000	    0.00000	 345.0	 1	    1.10000	    0.90000;
	6504	 1	 389.71	 38.73	 0.0	 0.0	 60	    1.00000	    0.00000	 345.0	 1	    1.10000	    0.90000;
	6505	 1	 8.92	 2.23	 0.0	 0.0	 60	    1.00000	    0.00000	 345.0	 1	    1.10000	    0.90000;
	6506	 1	 0.0	 0.0	 0.0	 0.0	 60	    1.00000	    0.00000	 345.0	 1	    1.10000	    0.90000;
	6507	 1	 540.77	 -61.35	 0.0	 0.0	 60	    1.00000	    0.00000	 345.0	 1	    1.10000	    0.90000;
	6508	 1	 173.01	 43.21	 0.0	 0.0	 60	    1.00000	    0.00000	 345.0	 1	    1.10000	    0.90000;
	6509	 1	 11.28	 2.82	 0.0	 0.0	 60	    1.00000	    0.00000	 345.0	 1	    1.10000	    0.90000;
	6510	 1	 1946.02	 -103.88	 0.0	 0.0	 60	    1.00000	    0.00000	 230.0	 1	    1.10000	    0.90000;
	6533	 2	 0.0	 0.0	 0.0	 0.0	 60	    1.00000	    0.00000	 20.0	 1	    1.10000	    0.90000;
	7001	 1	 9781.72	 972.35	 0.0	 0.0	 60	    1.00000	    0.00000	 345.0	 1	    1.10000	    0.90000;
	7002	 1	 2554.83	 -138.07	 0.0	 0.0	 60	    1.00000	    0.00000	 345.0	 1	    1.10000	    0.90000;
	7031	 2	 0.0	 0.0	 0.0	 0.0	 60	    1.00000	    0.00000	 20.0	 1	    1.10000	    0.90000;
	7032	 2	 0.0	 0.0	 0.0	 0.0	 60	    1.00000	    0.00000	 20.0	 1	    1.10000	    0.90000;
	8001	 1	 0.0	 0.0	 0.0	 0.0	 80	    1.00000	    0.00000	 500.0	 1	    1.10000	    0.90000;
	8002	 1	 0.0	 0.0	 0.0	 0.0	 80	    1.00000	    0.00000	 500.0	 1	    1.10000	    0.90000;
	8003	 1	 856.50	 85.14	 0.0	 0.0	 80	    1.00000	    0.00000	 230.0	 1	    1.10000	    0.90000;
	8004	 1	 4970.83	 494.11	 0.0	 0.0	 80	    1.00000	    0.00000	 230.0	 1	    1.10000	    0.90000;
	8005	 1	 1733.85	 172.37	 0.0	 0.0	 80	    1.00000	    0.00000	 230.0	 1	    1.10000	    0.90000;
	8033	 2	 0.0	 0.0	 0.0	 0.0	 80	    1.00000	    0.00000	 20.0	 1	    1.10000	    0.90000;
	8034	 2	 0.0	 0.0	 0.0	 0.0	 80	    1.00000	    0.00000	 20.0	 1	    1.10000	    0.90000;
];

%% generator data
%	bus	Pg	Qg	Qmax	Qmin	Vg	mBase	status	Pmax	Pmin
mpc.gen = [
	1032	 743.5	 0.0	 1030.0	 -1030.0	 1.0	 100.0	 1	 1487	 0.0; % NUC
	1032	 596.0	 0.0	 596.0	 -596.0	 1.0	 100.0	 1	 1192	 0.0; % COW
	1034	 226.0	 0.0	 2294.0	 -2294.0	 1.0	 100.0	 1	 452	 0.0; % COW
	1034	 613.0	 0.0	 918.0	 -918.0	 1.0	 100.0	 1	 1226	 0.0; % COW
	1034	 701.0	 0.0	 701.0	 -701.0	 1.0	 100.0	 1	 1402	 0.0; % NUC
	1131	 889.5	 0.0	 890.0	 -890.0	 1.0	 100.0	 1	 1779	 0.0; % COW
	1131	 889.5	 0.0	 1916.0	 -1916.0	 1.0	 100.0	 1	 1779	 0.0; % COW
	1131	 926.0	 0.0	 926.0	 -926.0	 1.0	 100.0	 1	 1852	 0.0; % NG
	1232	 846.0	 0.0	 1208.0	 -1208.0	 1.0	 100.0	 1	 1692	 0.0; % COW
	1232	 696.5	 0.0	 697.0	 -697.0	 1.0	 100.0	 1	 1393	 0.0; % NUC
	1331	 1258.0	 0.0	 1258.0	 -1258.0	 1.0	 100.0	 1	 2516	 0.0; % NUC
	1331	 1290.0	 0.0	 1290.0	 -1290.0	 1.0	 100.0	 1	 2580	 0.0; % COW
	1333	 1348.5	 0.0	 1349.0	 -1349.0	 1.0	 100.0	 1	 2697	 0.0; % COW
	1333	 1315.5	 0.0	 2746.0	 -2746.0	 1.0	 100.0	 1	 2631	 0.0; % NUC
	1333	 1443.5	 0.0	 1444.0	 -1444.0	 1.0	 100.0	 1	 2887	 0.0; % PEL
	1431	 2405.0	 0.0	 3559.0	 -3559.0	 1.0	 100.0	 1	 4810	 0.0; % COW
	1431	 2405.0	 0.0	 2405.0	 -2405.0	 1.0	 100.0	 1	 4810	 0.0; % COW
	1431	 2574.0	 0.0	 2574.0	 -2574.0	 1.0	 100.0	 1	 5148	 0.0; % PEL
	2030	 774.5	 0.0	 1070.0	 -1070.0	 1.0	 100.0	 1	 1549	 0.0; % COW
	2030	 814.0	 0.0	 814.0	 -814.0	 1.0	 100.0	 1	 1628	 0.0; % COW
	2130	 297.0	 0.0	 297.0	 -297.0	 1.0	 100.0	 1	 594	 0.0; % NG
	2130	 284.0	 0.0	 284.0	 -284.0	 1.0	 100.0	 1	 568	 0.0; % COW
	2130	 275.5	 0.0	 276.0	 -276.0	 1.0	 100.0	 1	 551	 0.0; % NG
	2130	 438.0	 0.0	 438.0	 -438.0	 1.0	 100.0	 1	 876	 0.0; % NG
	2233	 767.5	 0.0	 768.0	 -768.0	 1.0	 100.0	 1	 1535	 0.0; % COW
	2233	 636.5	 0.0	 637.0	 -637.0	 1.0	 100.0	 1	 1273	 0.0; % NG
	2233	 636.5	 0.0	 637.0	 -637.0	 1.0	 100.0	 1	 1273	 0.0; % NG
	2332	 613.0	 0.0	 613.0	 -613.0	 1.0	 100.0	 1	 1226	 0.0; % NUC
	2438	 467.0	 130.5	 728.0	 -467.0	 1.0	 100.0	 1	 934	 0.0; % NG
	2438	 526.0	 367.0	 1902.0	 -1168.0	 1.0	 100.0	 1	 1052	 0.0; % NUC
	2438	 438.0	 624.0	 2301.0	 -1053.0	 1.0	 100.0	 1	 876	 0.0; % COW
	2438	 960.0	 0.0	 960.0	 -960.0	 1.0	 100.0	 1	 1920	 0.0; % COW
	2438	 426.5	 4.5	 436.0	 -427.0	 1.0	 100.0	 1	 853	 0.0; % COW
	2438	 603.0	 0.0	 603.0	 -603.0	 1.0	 100.0	 1	 1206	 0.0; % COW
	2438	 491.5	 380.0	 1910.0	 -1150.0	 1.0	 100.0	 1	 983	 0.0; % COW
	2438	 -503.0	 0.0	 86.4	 -86.4	 1.0	 100.0	 1	 0	 -1006.0; % SYNC
	2533	 2414.0	 0.0	 2414.0	 -2414.0	 1.0	 100.0	 1	 4828	 0.0; % COW
	2630	 633.5	 0.0	 1346.0	 -1346.0	 1.0	 100.0	 1	 1267	 0.0; % COW
	2631	 894.0	 0.0	 894.0	 -894.0	 1.0	 100.0	 1	 1788	 0.0; % NG
	2634	 2088.5	 0.0	 2089.0	 -2089.0	 1.0	 100.0	 1	 4177	 0.0; % COW
	2637	 2332.5	 0.0	 2333.0	 -2333.0	 1.0	 100.0	 1	 4665	 0.0; % NG
	2638	 -445.5	 0.0	 191.0	 -191.0	 1.0	 100.0	 1	 381	 -1272.0; % COW
	3133	 560.0	 0.0	 560.0	 -560.0	 1.0	 100.0	 1	 1120	 0.0; % NG
	3133	 575.5	 0.0	 576.0	 -576.0	 1.0	 100.0	 1	 1151	 0.0; % PEL
	3135	 210.0	 14.5	 239.0	 -210.0	 1.0	 100.0	 1	 420	 0.0; % COW
	3135	 202.5	 0.0	 203.0	 -203.0	 1.0	 100.0	 1	 405	 0.0; % NG
	3234	 795.0	 0.0	 795.0	 -795.0	 1.0	 100.0	 1	 1590	 0.0; % COW
	3234	 529.5	 5.0	 1244.0	 -1234.0	 1.0	 100.0	 1	 1059	 0.0; % NG
	3234	 477.5	 0.0	 478.0	 -478.0	 1.0	 100.0	 1	 955	 0.0; % COW
	3234	 751.5	 0.0	 752.0	 -752.0	 1.0	 100.0	 1	 1503	 0.0; % COW
	3333	 513.5	 0.0	 514.0	 -514.0	 1.0	 100.0	 1	 1027	 0.0; % COW
	3333	 446.0	 0.0	 446.0	 -446.0	 1.0	 100.0	 1	 892	 0.0; % NG
	3432	 85.0	 0.0	 547.0	 -547.0	 1.0	 100.0	 1	 1094	 -924.0; % NG
	3433	 463.5	 0.0	 464.0	 -464.0	 1.0	 100.0	 1	 927	 0.0; % COW
	3433	 483.0	 188.5	 939.0	 -562.0	 1.0	 100.0	 1	 966	 0.0; % COW
	3531	 305.0	 202.5	 1004.0	 -599.0	 1.0	 100.0	 1	 610	 0.0; % COW
	3531	 309.5	 0.0	 310.0	 -310.0	 1.0	 100.0	 1	 619	 0.0; % COW
	3531	 275.5	 0.0	 276.0	 -276.0	 1.0	 100.0	 1	 551	 0.0; % NG
	3631	 171.5	 0.0	 172.0	 -172.0	 1.0	 100.0	 1	 343	 0.0; % NG
	3631	 166.5	 0.0	 167.0	 -167.0	 1.0	 100.0	 1	 333	 0.0; % NG
	3731	 2030.0	 0.0	 2030.0	 -2030.0	 1.0	 100.0	 1	 4060	 0.0; % NG
	3831	 720.5	 97.5	 1175.0	 -980.0	 1.0	 100.0	 1	 1441	 0.0; % COW
	3835	 974.5	 0.0	 975.0	 -975.0	 1.0	 100.0	 1	 1949	 0.0; % COW
	3835	 -255.0	 0.0	 7.2	 -7.2	 1.0	 100.0	 1	 0	 -510.0; % SYNC
	3836	 666.5	 0.0	 667.0	 -667.0	 1.0	 100.0	 1	 1333	 0.0; % COW
	3931	 193.5	 0.0	 291.6	 -291.6	 1.0	 100.0	 1	 387	 0.0; % NG
	3931	 464.5	 169.0	 1284.0	 -946.0	 1.0	 100.0	 1	 929	 0.0; % NUC
	3932	 919.0	 115.5	 1150.0	 -919.0	 1.0	 100.0	 1	 1838	 0.0; % COW
	3933	 547.5	 0.0	 548.0	 -548.0	 1.0	 100.0	 1	 1095	 0.0; % COW
	3933	 375.0	 0.0	 381.6	 -381.6	 1.0	 100.0	 1	 750	 0.0; % NG
	3933	 848.0	 0.0	 848.0	 -848.0	 1.0	 100.0	 1	 1696	 0.0; % COW
	3933	 636.0	 107.5	 1256.0	 -1041.0	 1.0	 100.0	 1	 1272	 0.0; % COW
	3933	 375.0	 0.0	 381.6	 -381.6	 1.0	 100.0	 1	 750	 0.0; % NG
	3933	 135.0	 0.0	 381.6	 -381.6	 1.0	 100.0	 1	 719	 -449.0; % NUC
	4039	 862.0	 0.0	 862.0	 -862.0	 1.0	 100.0	 1	 1724	 0.0; % COW
	4039	 626.5	 0.0	 1459.0	 -1459.0	 1.0	 100.0	 1	 1253	 0.0; % COW
	4039	 550.0	 0.0	 844.8	 -844.8	 1.0	 100.0	 1	 1100	 0.0; % NG
	4031	 1252.5	 0.0	 1253.0	 -1253.0	 1.0	 100.0	 1	 2505	 0.0; % COW
	4031	 1304.5	 0.0	 1305.0	 -1305.0	 1.0	 100.0	 1	 2609	 0.0; % NG
	4031	 1252.5	 0.0	 1253.0	 -1253.0	 1.0	 100.0	 1	 2505	 0.0; % COW
	4031	 1304.5	 0.0	 1305.0	 -1305.0	 1.0	 100.0	 1	 2609	 0.0; % NG
	4035	 435.5	 0.0	 676.8	 -676.8	 1.0	 100.0	 1	 871	 0.0; % COW
	4035	 562.5	 0.0	 676.8	 -676.8	 1.0	 100.0	 1	 1125	 0.0; % COW
	4035	 530.0	 0.0	 1836.0	 -1836.0	 1.0	 100.0	 1	 1060	 0.0; % COW
	4035	 596.5	 0.0	 676.8	 -676.8	 1.0	 100.0	 1	 1193	 0.0; % COW
	4131	 677.5	 0.0	 6482.0	 -6482.0	 1.0	 100.0	 1	 1355	 0.0; % COW
	4131	 608.0	 0.0	 608.0	 -608.0	 1.0	 100.0	 1	 1216	 0.0; % NG
	4132	 134.0	 0.0	 1473.0	 -1473.0	 1.0	 100.0	 1	 268	 0.0; % COW
	4132	 513.0	 0.0	 2847.0	 -2847.0	 1.0	 100.0	 1	 1026	 0.0; % COW
	4132	 291.0	 0.0	 580.0	 -580.0	 1.0	 100.0	 1	 582	 0.0; % COW
	4132	 181.5	 0.0	 231.0	 -231.0	 1.0	 100.0	 1	 363	 0.0; % NG
	4132	 236.5	 0.0	 237.0	 -237.0	 1.0	 100.0	 1	 473	 0.0; % NG
	4231	 642.0	 0.0	 728.0	 -728.0	 1.0	 100.0	 1	 1284	 0.0; % COW
	4231	 621.0	 0.0	 659.0	 -659.0	 1.0	 100.0	 1	 1242	 0.0; % COW
	4231	 613.0	 0.0	 1808.0	 -1808.0	 1.0	 100.0	 1	 1226	 0.0; % NUC