%%%%%%%%%%%%%%%%%%%%%%%%%%%%%%%%%%%%%%%%%%%%%%%%%%%%%%%%%%%%%%%%%%%%%%%%%%%
%%%%                                                                  %%%%%
%%%%    IEEE PES Power Grid Library - Optimal Power Flow - v17.07     %%%%%
%%%%          (https://github.com/power-grid-lib/pglib-opf)           %%%%%
%%%%             Benchmark Group - Active Power Increase              %%%%%
%%%%                         27 - June - 2017                         %%%%%
%%%%                                                                  %%%%%
%%%%%%%%%%%%%%%%%%%%%%%%%%%%%%%%%%%%%%%%%%%%%%%%%%%%%%%%%%%%%%%%%%%%%%%%%%%
function mpc = pglib_opf_case73_ieee_rts__api
mpc.version = '2';
mpc.baseMVA = 100.0;

%% area data
%	area	refbus
mpc.areas = [
	1	 101;
	2	 201;
	3	 301;
];

%% bus data
%	bus_i	type	Pd	Qd	Gs	Bs	area	Vm	Va	baseKV	zone	Vmax	Vmin
mpc.bus = [
	101	 2	 207.37	 22.00	 0.0	 0.0	 1	    1.04785	  -18.40471	 138.0	 1	    1.05000	    0.95000;
	102	 2	 186.24	 20.00	 0.0	 0.0	 1	    1.05000	  -17.41997	 138.0	 1	    1.05000	    0.95000;
	103	 1	 345.61	 37.00	 0.0	 0.0	 1	    0.95000	  -23.54452	 138.0	 1	    1.05000	    0.95000;
	104	 1	 142.08	 15.00	 0.0	 0.0	 1	    0.96731	  -25.94563	 138.0	 1	    1.05000	    0.95000;
	105	 1	 136.32	 14.00	 0.0	 0.0	 1	    0.98771	  -25.95700	 138.0	 1	    1.05000	    0.95000;
	106	 1	 261.13	 28.00	 0.0	 -100.0	 1	    0.95000	  -32.17110	 138.0	 1	    1.05000	    0.95000;
	107	 2	 240.01	 25.00	 0.0	 0.0	 1	    1.02437	  -31.45457	 138.0	 1	    1.05000	    0.95000;
	108	 1	 328.33	 35.00	 0.0	 0.0	 1	    0.95000	  -36.00559	 138.0	 1	    1.05000	    0.95000;
	109	 1	 336.01	 36.00	 0.0	 0.0	 1	    0.96204	  -24.64120	 138.0	 1	    1.05000	    0.95000;
	110	 1	 374.41	 40.00	 0.0	 0.0	 1	    0.97695	  -27.35374	 138.0	 1	    1.05000	    0.95000;
	111	 1	 0.00	 0.00	 0.0	 0.0	 1	    0.98089	  -13.66319	 230.0	 1	    1.05000	    0.95000;
	112	 1	 0.00	 0.00	 0.0	 0.0	 1	    0.96173	  -11.62307	 230.0	 1	    1.05000	    0.95000;
	113	 3	 508.81	 54.00	 0.0	 0.0	 1	    1.01249	    0.00000	 230.0	 1	    1.05000	    0.95000;
	114	 2	 372.49	 39.00	 0.0	 0.0	 1	    1.05000	  -14.24125	 230.0	 1	    1.05000	    0.95000;
	115	 2	 608.66	 64.00	 0.0	 0.0	 1	    1.05000	    1.63816	 230.0	 1	    1.05000	    0.95000;
	116	 2	 192.00	 20.00	 0.0	 0.0	 1	    1.05000	   -2.68812	 230.0	 1	    1.05000	    0.95000;
	117	 1	 0.00	 0.00	 0.0	 0.0	 1	    1.04567	    0.47515	 230.0	 1	    1.05000	    0.95000;
	118	 2	 639.38	 68.00	 0.0	 0.0	 1	    1.04910	   -0.22460	 230.0	 1	    1.05000	    0.95000;
	119	 1	 347.53	 37.00	 0.0	 0.0	 1	    1.03740	   -6.57200	 230.0	 1	    1.05000	    0.95000;
	120	 1	 245.77	 26.00	 0.0	 0.0	 1	    1.04216	   -6.32248	 230.0	 1	    1.05000	    0.95000;
	121	 2	 0.00	 0.00	 0.0	 0.0	 1	    1.05000	    3.20459	 230.0	 1	    1.05000	    0.95000;
	122	 2	 0.00	 0.00	 0.0	 0.0	 1	    1.05000	   18.94436	 230.0	 1	    1.05000	    0.95000;
	123	 2	 0.00	 0.00	 0.0	 0.0	 1	    1.05000	   -4.78200	 230.0	 1	    1.05000	    0.95000;
	124	 1	 0.00	 0.00	 0.0	 0.0	 1	    0.97464	   -7.10125	 230.0	 1	    1.05000	    0.95000;
	201	 2	 207.37	 22.00	 0.0	 0.0	 2	    1.02995	  -47.93616	 138.0	 2	    1.05000	    0.95000;
	202	 2	 186.24	 20.00	 0.0	 0.0	 2	    1.05000	  -47.52364	 138.0	 2	    1.05000	    0.95000;
	203	 1	 345.61	 37.00	 0.0	 0.0	 2	    0.95000	  -45.91218	 138.0	 2	    1.05000	    0.95000;
	204	 1	 142.08	 15.00	 0.0	 0.0	 2	    0.96838	  -55.36600	 138.0	 2	    1.05000	    0.95000;
	205	 1	 136.32	 14.00	 0.0	 0.0	 2	    0.97835	  -55.94245	 138.0	 2	    1.05000	    0.95000;
	206	 1	 261.13	 28.00	 0.0	 -100.0	 2	    0.95073	  -62.38940	 138.0	 2	    1.05000	    0.95000;
	207	 2	 240.01	 25.00	 0.0	 0.0	 2	    1.02395	  -60.93882	 138.0	 2	    1.05000	    0.95000;
	208	 1	 328.33	 35.00	 0.0	 0.0	 2	    0.95000	  -65.51697	 138.0	 2	    1.05000	    0.95000;
	209	 1	 336.01	 36.00	 0.0	 0.0	 2	    0.96275	  -53.46804	 138.0	 2	    1.05000	    0.95000;
	210	 1	 374.41	 40.00	 0.0	 0.0	 2	    0.97797	  -57.62130	 138.0	 2	    1.05000	    0.95000;
	211	 1	 0.00	 0.00	 0.0	 0.0	 2	    0.98106	  -44.63797	 230.0	 2	    1.05000	    0.95000;
	212	 1	 0.00	 0.00	 0.0	 0.0	 2	    0.97301	  -41.93043	 230.0	 2	    1.05000	    0.95000;
	213	 2	 508.81	 54.00	 0.0	 0.0	 2	    1.03968	  -36.43159	 230.0	 2	    1.05000	    0.95000;
	214	 2	 372.49	 39.00	 0.0	 0.0	 2	    1.00411	  -42.00644	 230.0	 2	    1.05000	    0.95000;
	215	 2	 608.66	 64.00	 0.0	 0.0	 2	    1.02868	  -20.86073	 230.0	 2	    1.05000	    0.95000;
	216	 2	 192.00	 20.00	 0.0	 0.0	 2	    1.01846	  -25.48475	 230.0	 2	    1.05000	    0.95000;
	217	 1	 0.00	 0.00	 0.0	 0.0	 2	    1.02742	  -21.14504	 230.0	 2	    1.05000	    0.95000;
	218	 2	 639.38	 68.00	 0.0	 0.0	 2	    1.03456	  -23.26458	 230.0	 2	    1.05000	    0.95000;
	219	 1	 347.53	 37.00	 0.0	 0.0	 2	    1.01937	  -28.34971	 230.0	 2	    1.05000	    0.95000;
	220	 1	 245.77	 26.00	 0.0	 0.0	 2	    1.03535	  -27.05864	 230.0	 2	    1.05000	    0.95000;
	221	 2	 0.00	 0.00	 0.0	 0.0	 2	    1.03736	  -21.01003	 230.0	 2	    1.05000	    0.95000;
	222	 2	 0.00	 0.00	 0.0	 0.0	 2	    1.05000	  -11.22477	 230.0	 2	    1.05000	    0.95000;
	223	 2	 0.00	 0.00	 0.0	 0.0	 2	    1.05000	  -24.95813	 230.0	 2	    1.05000	    0.95000;
	224	 1	 0.00	 0.00	 0.0	 0.0	 2	    0.96201	  -29.70560	 230.0	 2	    1.05000	    0.95000;
	301	 2	 207.37	 22.00	 0.0	 0.0	 3	    1.02925	  -20.51325	 138.0	 3	    1.05000	    0.95000;
	302	 2	 186.24	 20.00	 0.0	 0.0	 3	    1.05000	  -20.27212	 138.0	 3	    1.05000	    0.95000;
	303	 1	 345.61	 37.00	 0.0	 0.0	 3	    0.95000	  -27.91562	 138.0	 3	    1.05000	    0.95000;
	304	 1	 142.08	 15.00	 0.0	 0.0	 3	    0.96889	  -28.96447	 138.0	 3	    1.05000	    0.95000;
	305	 1	 136.32	 14.00	 0.0	 0.0	 3	    0.97746	  -28.52821	 138.0	 3	    1.05000	    0.95000;
	306	 1	 261.13	 28.00	 0.0	 -100.0	 3	    0.95000	  -35.02326	 138.0	 3	    1.05000	    0.95000;
	307	 2	 240.01	 25.00	 0.0	 0.0	 3	    1.02303	  -34.25149	 138.0	 3	    1.05000	    0.95000;
	308	 1	 328.33	 35.00	 0.0	 0.0	 3	    0.95000	  -38.88855	 138.0	 3	    1.05000	    0.95000;
	309	 1	 336.01	 36.00	 0.0	 0.0	 3	    0.96514	  -27.82537	 138.0	 3	    1.05000	    0.95000;
	310	 1	 374.41	 40.00	 0.0	 0.0	 3	    0.97695	  -30.20589	 138.0	 3	    1.05000	    0.95000;
	311	 1	 0.00	 0.00	 0.0	 0.0	 3	    0.98614	  -17.65946	 230.0	 3	    1.05000	    0.95000;
	312	 1	 0.00	 0.00	 0.0	 0.0	 3	    0.96709	  -13.56050	 230.0	 3	    1.05000	    0.95000;
	313	 2	 508.81	 54.00	 0.0	 0.0	 3	    1.03565	   -4.74525	 230.0	 3	    1.05000	    0.95000;
	314	 2	 372.49	 39.00	 0.0	 0.0	 3	    1.03639	  -18.74473	 230.0	 3	    1.05000	    0.95000;
	315	 2	 608.66	 64.00	 0.0	 0.0	 3	    1.05000	   -5.36097	 230.0	 3	    1.05000	    0.95000;
	316	 2	 192.00	 20.00	 0.0	 0.0	 3	    1.05000	   -7.96919	 230.0	 3	    1.05000	    0.95000;
	317	 1	 0.00	 0.00	 0.0	 0.0	 3	    1.04891	   -5.46767	 230.0	 3	    1.05000	    0.95000;
	318	 2	 639.38	 68.00	 0.0	 0.0	 3	    1.05000	   -5.70809	 230.0	 3	    1.05000	    0.95000;
	319	 1	 347.53	 37.00	 0.0	 0.0	 3	    1.03538	   -7.36771	 230.0	 3	    1.05000	    0.95000;
	320	 1	 245.77	 26.00	 0.0	 0.0	 3	    1.03878	   -3.17060	 230.0	 3	    1.05000	    0.95000;
	321	 2	 0.00	 0.00	 0.0	 0.0	 3	    1.05000	   -3.13603	 230.0	 3	    1.05000	    0.95000;
	322	 2	 0.00	 0.00	 0.0	 0.0	 3	    1.05000	    6.66203	 230.0	 3	    1.05000	    0.95000;
	323	 2	 0.00	 0.00	 0.0	 0.0	 3	    1.04965	    0.51916	 230.0	 3	    1.05000	    0.95000;
	324	 1	 0.00	 0.00	 0.0	 0.0	 3	    0.98016	  -13.18549	 230.0	 3	    1.05000	    0.95000;
	325	 1	 0.00	 0.00	 0.0	 0.0	 3	    1.05000	    0.74347	 230.0	 3	    1.05000	    0.95000;
];

%% generator data
%	bus	Pg	Qg	Qmax	Qmin	Vg	mBase	status	Pmax	Pmin	Pc1	Pc2	Qc1min	Qc1max	Qc2min	Qc2max	ramp_agc	ramp_10	ramp_30	ramp_q	apf
mpc.gen = [
	101	 85.0	 9.61	 43.0	 -43.0	 1.04785	 100.0	 1	 85	 8.0	 0.0	 0.0	 0.0	 0.0	 0.0	 0.0	 0.0	 0.0	 0.0	 0.0	 0.0; % COW
	101	 8.0	 12.306	 49.0	 -49.0	 1.04785	 100.0	 1	 97	 8.0	 0.0	 0.0	 0.0	 0.0	 0.0	 0.0	 0.0	 0.0	 0.0	 0.0	 0.0; % PEL
	101	 197.0	 43.341	 99.0	 -99.0	 1.04785	 100.0	 1	 197	 7.6	 0.0	 0.0	 0.0	 0.0	 0.0	 0.0	 0.0	 0.0	 0.0	 0.0	 0.0; % COW
	101	 7.6	 17.935	 60.0	 -60.0	 1.04785	 100.0	 1	 119	 7.6	 0.0	 0.0	 0.0	 0.0	 0.0	 0.0	 0.0	 0.0	 0.0	 0.0	 0.0; % PEL
	102	 30.174	 24.362	 142.0	 -142.0	 1.05	 100.0	 1	 284	 8.0	 0.0	 0.0	 0.0	 0.0	 0.0	 0.0	 0.0	 0.0	 0.0	 0.0	 0.0; % PEL
	102	 183.0	 10.402	 92.0	 -92.0	 1.05	 100.0	 1	 183	 8.0	 0.0	 0.0	 0.0	 0.0	 0.0	 0.0	 0.0	 0.0	 0.0	 0.0	 0.0; % PEL
	102	 159.0	 7.889	 80.0	 -80.0	 1.05	 100.0	 1	 159	 7.6	 0.0	 0.0	 0.0	 0.0	 0.0	 0.0	 0.0	 0.0	 0.0	 0.0	 0.0; % PEL
	102	 218.0	 14.527	 109.0	 -109.0	 1.05	 100.0	 1	 218	 7.6	 0.0	 0.0	 0.0	 0.0	 0.0	 0.0	 0.0	 0.0	 0.0	 0.0	 0.0; % NG
	107	 420.0	 72.744	 210.0	 -210.0	 1.02437	 100.0	 1	 420	 12.5	 0.0	 0.0	 0.0	 0.0	 0.0	 0.0	 0.0	 0.0	 0.0	 0.0	 0.0; % COW
	107	 115.356	 30.874	 132.0	 -132.0	 1.02437	 100.0	 1	 263	 12.5	 0.0	 0.0	 0.0	 0.0	 0.0	 0.0	 0.0	 0.0	 0.0	 0.0	 0.0; % NG
	107	 12.5	 34.044	 139.0	 -139.0	 1.02437	 100.0	 1	 277	 12.5	 0.0	 0.0	 0.0	 0.0	 0.0	 0.0	 0.0	 0.0	 0.0	 0.0	 0.0; % NG
	113	 34.5	 6.34	 231.0	 -231.0	 1.01249	 100.0	 1	 461	 34.5	 0.0	 0.0	 0.0	 0.0	 0.0	 0.0	 0.0	 0.0	 0.0	 0.0	 0.0; % NG
	113	 34.5	 7.544	 252.0	 -252.0	 1.01249	 100.0	 1	 504	 34.5	 0.0	 0.0	 0.0	 0.0	 0.0	 0.0	 0.0	 0.0	 0.0	 0.0	 0.0; % NG
	113	 1947.454	 123.349	 1026.0	 -1026.0	 1.01249	 100.0	 1	 2052	 34.5	 0.0	 0.0	 0.0	 0.0	 0.0	 0.0	 0.0	 0.0	 0.0	 0.0	 0.0; % COW
	114	 0.0	 272.095	 279.6	 -279.6	 1.05	 100.0	 1	 0	 0.0	 0.0	 0.0	 0.0	 0.0	 0.0	 0.0	 0.0	 0.0	 0.0	 0.0	 0.0; % SYNC
	115	 1.2	 15.563	 102.0	 -102.0	 1.05	 100.0	 1	 165	 1.2	 0.0	 0.0	 0.0	 0.0	 0.0	 0.0	 0.0	 0.0	 0.0	 0.0	 0.0; % NG
	115	 214.0	 17.087	 107.0	 -107.0	 1.05	 100.0	 1	 214	 1.2	 0.0	 0.0	 0.0	 0.0	 0.0	 0.0	 0.0	 0.0	 0.0	 0.0	 0.0; % COW
	115	 395.0	 55.348	 198.0	 -198.0	 1.05	 100.0	 1	 395	 1.2	 0.0	 0.0	 0.0	 0.0	 0.0	 0.0	 0.0	 0.0	 0.0	 0.0	 0.0; % COW
	115	 274.0	 27.579	 137.0	 -137.0	 1.05	 100.0	 1	 274	 1.2	 0.0	 0.0	 0.0	 0.0	 0.0	 0.0	 0.0	 0.0	 0.0	 0.0	 0.0; % NG
	115	 151.0	 15.563	 102.0	 -102.0	 1.05	 100.0	 1	 151	 1.2	 0.0	 0.0	 0.0	 0.0	 0.0	 0.0	 0.0	 0.0	 0.0	 0.0	 0.0; % NG
	115	 254.0	 23.831	 127.0	 -127.0	 1.05	 100.0	 1	 254	 27.15	 0.0	 0.0	 0.0	 0.0	 0.0	 0.0	 0.0	 0.0	 0.0	 0.0	 0.0; % NG
	116	 183.317	 165.135	 391.0	 -391.0	 1.05	 100.0	 1	 782	 27.15	 0.0	 0.0	 0.0	 0.0	 0.0	 0.0	 0.0	 0.0	 0.0	 0.0	 0.0; % NG
	118	 50.0	 165.009	 237.0	 -237.0	 1.0491	 100.0	 1	 474	 50.0	 0.0	 0.0	 0.0	 0.0	 0.0	 0.0	 0.0	 0.0	 0.0	 0.0	 0.0; % NG
	121	 248.0	 26.847	 200.0	 -190.8	 1.05	 100.0	 1	 248	 50.0	 0.0	 0.0	 0.0	 0.0	 0.0	 0.0	 0.0	 0.0	 0.0	 0.0	 0.0; % NG
	122	 305.0	 -1.764	 153.0	 -153.0	 1.05	 100.0	 1	 305	 5.0	 0.0	 0.0	 0.0	 0.0	 0.0	 0.0	 0.0	 0.0	 0.0	 0.0	 0.0; % NG
	122	 31.249	 -0.435	 76.0	 -76.0	 1.05	 100.0	 1	 152	 5.0	 0.0	 0.0	 0.0	 0.0	 0.0	 0.0	 0.0	 0.0	 0.0	 0.0	 0.0; % COW
	122	 121.0	 -0.28	 61.0	 -61.0	 1.05	 100.0	 1	 121	 5.0	 0.0	 0.0	 0.0	 0.0	 0.0	 0.0	 0.0	 0.0	 0.0	 0.0	 0.0; % NG
	122	 5.0	 -0.262	 59.0	 -59.0	 1.05	 100.0	 1	 118	 5.0	 0.0	 0.0	 0.0	 0.0	 0.0	 0.0	 0.0	 0.0	 0.0	 0.0	 0.0; % NG
	122	 186.0	 -0.652	 93.0	 -93.0	 1.05	 100.0	 1	 186	 5.0	 0.0	 0.0	 0.0	 0.0	 0.0	 0.0	 0.0	 0.0	 0.0	 0.0	 0.0; % NG
	122	 125.0	 -0.299	 63.0	 -63.0	 1.05	 100.0	 1	 125	 5.0	 0.0	 0.0	 0.0	 0.0	 0.0	 0.0	 0.0	 0.0	 0.0	 0.0	 0.0; % NG
	123	 592.0	 99.3	 296.0	 -296.0	 1.05	 100.0	 1	 592	 27.15	 0.0	 0.0	 0.0	 0.0	 0.0	 0.0	 0.0	 0.0	 0.0	 0.0	 0.0; % NG
	123	 67.051	 30.679	 158.0	 -158.0	 1.05	 100.0	 1	 316	 27.15	 0.0	 0.0	 0.0	 0.0	 0.0	 0.0	 0.0	 0.0	 0.0	 0.0	 0.0; % NG
	123	 70.0	 59.054	 223.0	 -223.0	 1.05	 100.0	 1	 446	 70.0	 0.0	 0.0	 0.0	 0.0	 0.0	 0.0	 0.0	 0.0	 0.0	 0.0	 0.0; % COW
	201	 8.0	 -15.035	 57.0	 -57.0	 1.02995	 100.0	 1	 114	 8.0	 0.0	 0.0	 0.0	 0.0	 0.0	 0.0	 0.0	 0.0	 0.0	 0.0	 0.0; % NG
	201	 8.0	 -8.039	 41.0	 -41.0	 1.02995	 100.0	 1	 82	 8.0	 0.0	 0.0	 0.0	 0.0	 0.0	 0.0	 0.0	 0.0	 0.0	 0.0	 0.0; % PEL
	201	 132.0	 -19.729	 66.0	 -66.0	 1.02995	 100.0	 1	 132	 7.6	 0.0	 0.0	 0.0	 0.0	 0.0	 0.0	 0.0	 0.0	 0.0	 0.0	 0.0; % NG
	201	 143.0	 -23.123	 72.0	 -72.0	 1.02995	 100.0	 1	 143	 7.6	 0.0	 0.0	 0.0	 0.0	 0.0	 0.0	 0.0	 0.0	 0.0	 0.0	 0.0; % NG
	202	 314.646	 128.224	 392.0	 -392.0	 1.05	 100.0	 1	 784	 8.0	 0.0	 0.0	 0.0	 0.0	 0.0	 0.0	 0.0	 0.0	 0.0	 0.0	 0.0; % COW
	202	 8.0	 12.642	 117.0	 -117.0	 1.05	 100.0	 1	 233	 8.0	 0.0	 0.0	 0.0	 0.0	 0.0	 0.0	 0.0	 0.0	 0.0	 0.0	 0.0; % PEL
	202	 203.0	 9.635	 102.0	 -102.0	 1.05	 100.0	 1	 203	 7.6	 0.0	 0.0	 0.0	 0.0	 0.0	 0.0	 0.0	 0.0	 0.0	 0.0	 0.0; % NG
	202	 7.6	 50.137	 237.0	 -237.0	 1.05	 100.0	 1	 473	 7.6	 0.0	 0.0	 0.0	 0.0	 0.0	 0.0	 0.0	 0.0	 0.0	 0.0	 0.0; % NG
	207	 174.0	 16.81	 87.0	 -87.0	 1.02395	 100.0	 1	 174	 12.5	 0.0	 0.0	 0.0	 0.0	 0.0	 0.0	 0.0	 0.0	 0.0	 0.0	 0.0; % NG
	207	 84.817	 87.146	 213.0	 -213.0	 1.02395	 100.0	 1	 426	 12.5	 0.0	 0.0	 0.0	 0.0	 0.0	 0.0	 0.0	 0.0	 0.0	 0.0	 0.0; % NG
	207	 132.0	 9.827	 66.0	 -66.0	 1.02395	 100.0	 1	 132	 12.5	 0.0	 0.0	 0.0	 0.0	 0.0	 0.0	 0.0	 0.0	 0.0	 0.0	 0.0; % NG
	213	 101.003	 74.439	 214.0	 -214.0	 1.03968	 100.0	 1	 427	 34.5	 0.0	 0.0	 0.0	 0.0	 0.0	 0.0	 0.0	 0.0	 0.0	 0.0	 0.0; % NG
	213	 34.5	 80.733	 224.0	 -224.0	 1.03968	 100.0	 1	 448	 34.5	 0.0	 0.0	 0.0	 0.0	 0.0	 0.0	 0.0	 0.0	 0.0	 0.0	 0.0; % NG
	213	 664.0	 157.788	 332.0	 -332.0	 1.03968	 100.0	 1	 664	 34.5	 0.0	 0.0	 0.0	 0.0	 0.0	 0.0	 0.0	 0.0	 0.0	 0.0	 0.0; % NG
	214	 0.0	 162.827	 278.4	 -278.4	 1.00411	 100.0	 1	 0	 0.0	 0.0	 0.0	 0.0	 0.0	 0.0	 0.0	 0.0	 0.0	 0.0	 0.0	 0.0; % SYNC
	215	 292.0	 48.076	 146.0	 -146.0	 1.02868	 100.0	 1	 292	 1.2	 0.0	 0.0	 0.0	 0.0	 0.0	 0.0	 0.0	 0.0	 0.0	 0.0	 0.0; % COW
	215	 209.246	 73.071	 185.0	 -185.0	 1.02868	 100.0	 1	 369	 1.2	 0.0	 0.0	 0.0	 0.0	 0.0	 0.0	 0.0	 0.0	 0.0	 0.0	 0.0; % NG
	215	 1.2	 26.159	 105.0	 -105.0	 1.02868	 100.0	 1	 210	 1.2	 0.0	 0.0	 0.0	 0.0	 0.0	 0.0	 0.0	 0.0	 0.0	 0.0	 0.0; % NG
	215	 421.0	 91.462	 211.0	 -211.0	 1.02868	 100.0	 1	 421	 1.2	 0.0	 0.0	 0.0	 0.0	 0.0	 0.0	 0.0	 0.0	 0.0	 0.0	 0.0; % COW
	215	 1.2	 51.687	 152.0	 -152.0	 1.02868	 100.0	 1	 303	 1.2	 0.0	 0.0	 0.0	 0.0	 0.0	 0.0	 0.0	 0.0	 0.0	 0.0	 0.0; % NG
	215	 27.15	 21.645	 95.0	 -95.0	 1.02868	 100.0	 1	 189	 27.15	 0.0	 0.0	 0.0	 0.0	 0.0	 0.0	 0.0	 0.0	 0.0	 0.0	 0.0; % NG
	216	 113.507	 63.778	 326.0	 -326.0	 1.01846	 100.0	 1	 651	 27.15	 0.0	 0.0	 0.0	 0.0	 0.0	 0.0	 0.0	 0.0	 0.0	 0.0	 0.0; % NG
	218	 50.003	 177.88	 200.0	 -168.0	 1.03456	 100.0	 1	 336	 50.0	 0.0	 0.0	 0.0	 0.0	 0.0	 0.0	 0.0	 0.0	 0.0	 0.0	 0.0; % NG
	221	 50.0	 43.74	 200.0	 -145.0	 1.03736	 100.0	 1	 289	 50.0	 0.0	 0.0	 0.0	 0.0	 0.0	 0.0	 0.0	 0.0	 0.0	 0.0	 0.0; % NG
	222	 5.0	 0.16	 97.0	 -97.0	 1.05	 100.0	 1	 194	 5.0	 0.0	 0.0	 0.0	 0.0	 0.0	 0.0	 0.0	 0.0	 0.0	 0.0	 0.0; % NG
	222	 167.0	 0.12	 84.0	 -84.0	 1.05	 100.0	 1	 167	 5.0	 0.0	 0.0	 0.0	 0.0	 0.0	 0.0	 0.0	 0.0	 0.0	 0.0	 0.0; % NG
	222	 5.0	 0.253	 122.0	 -122.0	 1.05	 100.0	 1	 243	 5.0	 0.0	 0.0	 0.0	 0.0	 0.0	 0.0	 0.0	 0.0	 0.0	 0.0	 0.0; % NG
	222	 5.0	 0.046	 52.0	 -52.0	 1.05	 100.0	 1	 103	 5.0	 0.0	 0.0	 0.0	 0.0	 0.0	 0.0	 0.0	 0.0	 0.0	 0.0	 0.0; % NG
	222	 175.0	 0.132	 88.0	 -88.0	 1.05	 100.0	 1	 175	 5.0	 0.0	 0.0	 0.0	 0.0	 0.0	 0.0	 0.0	 0.0	 0.0	 0.0	 0.0; % NG
	222	 95.0	 0.039	 48.0	 -48.0	 1.05	 100.0	 1	 95	 5.0	 0.0	 0.0	 0.0	 0.0	 0.0	 0.0	 0.0	 0.0	 0.0	 0.0	 0.0; % NG
	223	 27.15	 40.227	 129.0	 -129.0	 1.05	 100.0	 1	 257	 27.15	 0.0	 0.0	 0.0	 0.0	 0.0	 0.0	 0.0	 0.0	 0.0	 0.0	 0.0; % NG
	223	 27.15	 66.469	 171.0	 -171.0	 1.05	 100.0	 1	 342	 27.15	 0.0	 0.0	 0.0	 0.0	 0.0	 0.0	 0.0	 0.0	 0.0	 0.0	 0.0; % NG
	223	 553.0	 147.334	 277.0	 -277.0	 1.05	 100.0	 1	 553	 70.0	 0.0	 0.0	 0.0	 0.0	 0.0	 0.0	 0.0	 0.0	 0.0	 0.0	 0.0; % NG
	301	 237.0	 -36.694	 119.0	 -119.0	 1.02925	 100.0	 1	 237	 8.0	 0.0	 0.0	 0.0	 0.0	 0.0	 0.0	 0.0	 0.0	 0.0	 0.0	 0.0; % NG
	301	 8.0	 -13.138	 69.0	 -69.0	 1.02925	 100.0	 1	 138	 8.0	 0.0	 0.0	 0.0	 0.0	 0.0	 0.0	 0.0	 0.0	 0.0	 0.0	 0.0; % PEL
	301	 7.6	 -27.608	 102.0	 -102.0	 1.02925	 100.0	 1	 203	 7.6	 0.0	 0.0	 0.0	 0.0	 0.0	 0.0	 0.0	 0.0	 0.0	 0.0	 0.0; % PEL
	301	 131.442	 -13.508	 70.0	 -70.0	 1.02925	 100.0	 1	 140	 7.6	 0.0	 0.0	 0.0	 0.0	 0.0	 0.0	 0.0	 0.0	 0.0	 0.0	 0.0; % NG
	302	 296.0	 89.589	 148.0	 -148.0	 1.05	 100.0	 1	 296	 8.0	 0.0	 0.0	 0.0	 0.0	 0.0	 0.0	 0.0	 0.0	 0.0	 0.0	 0.0; % NG
	302	 8.0	 42.046	 91.0	 -91.0	 1.05	 100.0	 1	 182	 8.0	 0.0	 0.0	 0.0	 0.0	 0.0	 0.0	 0.0	 0.0	 0.0	 0.0	 0.0; % PEL
	302	 39.559	 36.072	 83.0	 -83.0	 1.05	 100.0	 1	 166	 7.6	 0.0	 0.0	 0.0	 0.0	 0.0	 0.0	 0.0	 0.0	 0.0	 0.0	 0.0; % PEL
	302	 179.0	 41.286	 90.0	 -90.0	 1.05	 100.0	 1	 179	 7.6	 0.0	 0.0	 0.0	 0.0	 0.0	 0.0	 0.0	 0.0	 0.0	 0.0	 0.0; % NG
	307	 147.0	 17.652	 74.0	 -74.0	 1.02303	 100.0	 1	 147	 12.5	 0.0	 0.0	 0.0	 0.0	 0.0	 0.0	 0.0	 0.0	 0.0	 0.0	 0.0; % COW
	307	 24.862	 57.586	 142.0	 -142.0	 1.02303	 100.0	 1	 283	 12.5	 0.0	 0.0	 0.0	 0.0	 0.0	 0.0	 0.0	 0.0	 0.0	 0.0	 0.0; % NG
	307	 220.0	 36.743	 110.0	 -110.0	 1.02303	 100.0	 1	 220	 12.5	 0.0	 0.0	 0.0	 0.0	 0.0	 0.0	 0.0	 0.0	 0.0	 0.0	 0.0; % COW
	313	 87.613	 78.673	 257.0	 -257.0	 1.03565	 100.0	 1	 513	 34.5	 0.0	 0.0	 0.0	 0.0	 0.0	 0.0	 0.0	 0.0	 0.0	 0.0	 0.0; % NG
	313	 521.0	 80.924	 261.0	 -261.0	 1.03565	 100.0	 1	 521	 34.5	 0.0	 0.0	 0.0	 0.0	 0.0	 0.0	 0.0	 0.0	 0.0	 0.0	 0.0; % NG
	313	 610.0	 107.167	 305.0	 -305.0	 1.03565	 100.0	 1	 610	 34.5	 0.0	 0.0	 0.0	 0.0	 0.0	 0.0	 0.0	 0.0	 0.0	 0.0	 0.0; % NG
	314	 0.0	 195.559	 284.4	 -284.4	 1.03639	 100.0	 1	 0	 0.0	 0.0	 0.0	 0.0	 0.0	 0.0	 0.0	 0.0	 0.0	 0.0	 0.0	 0.0; % SYNC
	315	 404.0	 50.077	 202.0	 -202.0	 1.05	 100.0	 1	 404	 1.2	 0.0	 0.0	 0.0	 0.0	 0.0	 0.0	 0.0	 0.0	 0.0	 0.0	 0.0; % COW
	315	 202.0	 13.371	 102.0	 -102.0	 1.05	 100.0	 1	 202	 1.2	 0.0	 0.0	 0.0	 0.0	 0.0	 0.0	 0.0	 0.0	 0.0	 0.0	 0.0; % COW
	315	 1.2	 27.643	 148.0	 -148.0	 1.05	 100.0	 1	 295	 1.2	 0.0	 0.0	 0.0	 0.0	 0.0	 0.0	 0.0	 0.0	 0.0	 0.0	 0.0; % NG
	315	 379.0	 44.604	 190.0	 -190.0	 1.05	 100.0	 1	 379	 1.2	 0.0	 0.0	 0.0	 0.0	 0.0	 0.0	 0.0	 0.0	 0.0	 0.0	 0.0; % NG
	315	 1.2	 13.371	 102.0	 -102.0	 1.05	 100.0	 1	 109	 1.2	 0.0	 0.0	 0.0	 0.0	 0.0	 0.0	 0.0	 0.0	 0.0	 0.0	 0.0; % NG
	315	 27.15	 13.371	 102.0	 -102.0	 1.05	 100.0	 1	 198	 27.15	 0.0	 0.0	 0.0	 0.0	 0.0	 0.0	 0.0	 0.0	 0.0	 0.0	 0.0; % NG
	316	 27.15	 177.578	 359.0	 -359.0	 1.05	 100.0	 1	 717	 27.15	 0.0	 0.0	 0.0	 0.0	 0.0	 0.0	 0.0	 0.0	 0.0	 0.0	 0.0; % NG
	318	 585.0	 128.086	 293.0	 -293.0	 1.05	 100.0	 1	 585	 50.0	 0.0	 0.0	 0.0	 0.0	 0.0	 0.0	 0.0	 0.0	 0.0	 0.0	 0.0; % COW
	321	 281.0	 -18.755	 200.0	 -153.6	 1.05	 100.0	 1	 281	 50.0	 0.0	 0.0	 0.0	 0.0	 0.0	 0.0	 0.0	 0.0	 0.0	 0.0	 0.0; % COW
	322	 5.0	 -3.203	 46.0	 -46.0	 1.05	 100.0	 1	 91	 5.0	 0.0	 0.0	 0.0	 0.0	 0.0	 0.0	 0.0	 0.0	 0.0	 0.0	 0.0; % PEL
	322	 5.0	 -9.834	 81.0	 -81.0	 1.05	 100.0	 1	 162	 5.0	 0.0	 0.0	 0.0	 0.0	 0.0	 0.0	 0.0	 0.0	 0.0	 0.0	 0.0; % NG
	322	 123.0	 -5.797	 62.0	 -62.0	 1.05	 100.0	 1	 123	 5.0	 0.0	 0.0	 0.0	 0.0	 0.0	 0.0	 0.0	 0.0	 0.0	 0.0	 0.0; % NG
	322	 67.0	 -1.754	 34.0	 -34.0	 1.05	 100.0	 1	 67	 5.0	 0.0	 0.0	 0.0	 0.0	 0.0	 0.0	 0.0	 0.0	 0.0	 0.0	 0.0; % NG
	322	 123.0	 -5.797	 62.0	 -62.0	 1.05	 100.0	 1	 123	 5.0	 0.0	 0.0	 0.0	 0.0	 0.0	 0.0	 0.0	 0.0	 0.0	 0.0	 0.0; % NG
	322	 171.0	 -11.065	 86.0	 -86.0	 1.05	 100.0	 1	 171	 5.0	 0.0	 0.0	 0.0	 0.0	 0.0	 0.0	 0.0	 0.0	 0.0	 0.0	 0.0; % NG
	323	 283.0	 25.818	 142.0	 -142.0	 1.04965	 100.0	 1	 283	 27.15	 0.0	 0.0	 0.0	 0.0	 0.0	 0.0	 0.0	 0.0	 0.0	 0.0	 0.0; % NG
	323	 358.0	 40.28	 179.0	 -179.0	 1.04965	 100.0	 1	 358	 27.15	 0.0	 0.0	 0.0	 0.0	 0.0	 0.0	 0.0	 0.0	 0.0	 0.0	 0.0; % NG
	323	 335.0	 35.687	 168.0	 -168.0	 1.04965	 100.0	 1	 335	 70.0	 0.0	 0.0	 0.0	 0.0	 0.0	 0.0	 0.0	 0.0	 0.0	 0.0	 0.0; % NG
];

%% generator cost data
%	2	startup	shutdown	n	c(n-1)	...	c0
mpc.gencost = [
	2	 1500.0	 0.0	 3	   0.000000	   0.971420	   0.000000; % COW
	2	 1500.0	 0.0	 3	   0.000000	   6.535507	   0.000000; % PEL
	2	 1500.0	 0.0	 3	   0.000000	   1.049586	   0.000000; % COW
	2	 1500.0	 0.0	 3	   0.000000	   6.788508	   0.000000; % PEL
	2	 1500.0	 0.0	 3	   0.000000	   7.323574	   0.000000; % PEL
	2	 1500.0	 0.0	 3	   0.000000	   6.924837	   0.000000; % PEL
	2	 1500.0	 0.0	 3	   0.000000	   6.786961	   0.000000; % PEL
	2	 1500.0	 0.0	 3	   0.000000	   1.313787	   0.000000; % NG
	2	 1500.0	 0.0	 3	   0.000000	   0.650419	   0.000000; % COW
	2	 1500.0	 0.0	 3	   0.000000	   0.840987	   0.000000; % NG
	2	 1500.0	 0.0	 3	   0.000000	   0.970562	   0.000000; % NG
	2	 1500.0	 0.0	 3	   0.000000	   1.265640	   0.000000; % NG
	2	 1500.0	 0.0	 3	   0.000000	   0.794231	   0.000000; % NG
	2	 1500.0	 0.0	 3	   0.000000	   0.588563	   0.000000; % COW
	2	 1500.0	 0.0	 3	   0.000000	   0.000000	   0.000000; % SYNC
	2	 1500.0	 0.0	 3	   0.000000	   1.169316	   0.000000; % NG
	2	 1500.0	 0.0	 3	   0.000000	   0.815306	   0.000000; % COW
	2	 1500.0	 0.0	 3	   0.000000	   0.628737	   0.000000; % COW
	2	 1500.0	 0.0	 3	   0.000000	   1.001595	   0.000000; % NG
	2	 1500.0	 0.0	 3	   0.000000	   1.095930	   0.000000; % NG
	2	 1500.0	 0.0	 3	   0.000000	   0.914876	   0.000000; % NG
	2	 1500.0	 0.0	 3	   0.000000	   1.208177	   0.000000; % NG
	2	 1500.0	 0.0	 3	   0.000000	   1.298624	   0.000000; % NG
	2	 1500.0	 0.0	 3	   0.000000	   1.134115	   0.000000; % NG
	2	 1500.0	 0.0	 3	   0.000000	   0.871186	   0.000000; % NG
	2	 1500.0	 0.0	 3	   0.000000	   1.079946	   0.000000; % COW
	2	 1500.0	 0.0	 3	   0.000000	   0.793221	   0.000000; % NG
	2	 1500.0	 0.0	 3	   0.000000	   1.534770	   0.000000; % NG
	2	 1500.0	 0.0	 3	   0.000000	   1.019372	   0.000000; % NG
	2	 1500.0	 0.0	 3	   0.000000	   0.710251	   0.000000; % NG
	2	 1500.0	 0.0	 3	   0.000000	   0.879339	   0.000000; % NG
	2	 1500.0	 0.0	 3	   0.000000	   0.994817	   0.000000; % NG
	2	 1500.0	 0.0	 3	   0.000000	   1.171652	   0.000000; % COW
	2	 1500.0	 0.0	 3	   0.000000	   1.147848	   0.000000; % NG
	2	 1500.0	 0.0	 3	   0.000000	   7.303802	   0.000000; % PEL
	2	 1500.0	 0.0	 3	   0.000000	   0.790732	   0.000000; % NG
	2	 1500.0	 0.0	 3	   0.000000	   0.744449	   0.000000; % NG
	2	 1500.0	 0.0	 3	   0.000000	   1.144505	   0.000000; % COW
	2	 1500.0	 0.0	 3	   0.000000	   7.447280	   0.000000; % PEL
	2	 1500.0	 0.0	 3	   0.000000	   1.058439	   0.000000; % NG
	2	 1500.0	 0.0	 3	   0.000000	   1.207314	   0.000000; % NG
	2	 1500.0	 0.0	 3	   0.000000	   0.707579	   0.000000; % NG
	2	 1500.0	 0.0	 3	   0.000000	   1.086439	   0.000000; % NG
	2	 1500.0	 0.0	 3	   0.000000	   0.904870	   0.000000; % NG
	2	 1500.0	 0.0	 3	   0.000000	   1.300560	   0.000000; % NG
	2	 1500.0	 0.0	 3	   0.000000	   1.413707	   0.000000; % NG
	2	 1500.0	 0.0	 3	   0.000000	   1.277818	   0.000000; % NG
	2	 1500.0	 0.0	 3	   0.000000	   0.000000	   0.000000; % SYNC
	2	 1500.0	 0.0	 3	   0.000000	   0.729845	   0.000000; % COW
	2	 1500.0	 0.0	 3	   0.000000	   0.946836	   0.000000; % NG
	2	 1500.0	 0.0	 3	   0.000000	   1.326732	   0.000000; % NG
	2	 1500.0	 0.0	 3	   0.000000	   0.761412	   0.000000; % COW
	2	 1500.0	 0.0	 3	   0.000000	   1.028859	   0.000000; % NG
	2	 1500.0	 0.0	 3	   0.000000	   0.985877	   0.000000; % NG
	2	 1500.0	 0.0	 3	   0.000000	   1.110947	   0.000000; % NG
	2	 1500.0	 0.0	 3	   0.000000	   1.032006	   0.000000; % NG
	2	 1500.0	 0.0	 3	   0.000000	   1.066783	   0.000000; % NG
	2	 1500.0	 0.0	 3	   0.000000	   1.125093	   0.000000; % NG
	2	 1500.0	 0.0	 3	   0.000000	   0.706378	   0.000000; % NG
	2	 1500.0	 0.0	 3	   0.000000	   1.734911	   0.000000; % NG
	2	 1500.0	 0.0	 3	   0.000000	   1.172403	   0.000000; % NG
	2	 1500.0	 0.0	 3	   0.000000	   0.948141	   0.000000; % NG
	2	 1500.0	 0.0	 3	   0.000000	   0.690374	   0.000000; % NG
	2	 1500.0	 0.0	 3	   0.000000	   1.309918	   0.000000; % NG
	2	 1500.0	 0.0	 3	   0.000000	   1.294211	   0.000000; % NG
	2	 1500.0	 0.0	 3	   0.000000	   1.157531	   0.000000; % NG
	2	 1500.0	 0.0	 3	   0.000000	   1.188446	   0.000000; % NG
	2	 1500.0	 0.0	 3	   0.000000	   6.879977	   0.000000; % PEL
	2	 1500.0	 0.0	 3	   0.000000	   7.065069	   0.000000; % PEL
	2	 1500.0	 0.0	 3	   0.000000	   1.250411	   0.000000; % NG
	2	 1500.0	 0.0	 3	   0.000000	   1.067932	   0.000000; % NG
	2	 1500.0	 0.0	 3	   0.000000	   6.645562	   0.000000; % PEL
	2	 1500.0	 0.0	 3	   0.000000	   6.324664	   0.000000; % PEL
	2	 1500.0	 0.0	 3	   0.000000	   1.191227	   0.000000; % NG
	2	 1500.0	 0.0	 3	   0.000000	   0.592133	   0.000000; % COW
	2	 1500.0	 0.0	 3	   0.000000	   1.286694	   0.000000; % NG
	2	 1500.0	 0.0	 3	   0.000000	   0.733987	   0.000000; % COW
	2	 1500.0	 0.0	 3	   0.000000	   1.296721	   0.000000; % NG
	2	 1500.0	 0.0	 3	   0.000000	   1.069507	   0.000000; % NG
	2	 1500.0	 0.0	 3	   0.000000	   0.910595	   0.000000; % NG
	2	 1500.0	 0.0	 3	   0.000000	   0.000000	   0.000000; % SYNC
	2	 1500.0	 0.0	 3	   0.000000	   0.743217	   0.000000; % COW
	2	 1500.0	 0.0	 3	   0.000000	   0.806772	   0.000000; % COW
	2	 1500.0	 0.0	 3	   0.000000	   1.204143	   0.000000; % NG
	2	 1500.0	 0.0	 3	   0.000000	   0.976213	   0.000000; % NG
	2	 1500.0	 0.0	 3	   0.000000	   1.075808	   0.000000; % NG
	2	 1500.0	 0.0	 3	   0.000000	   1.117668	   0.000000; % NG
	2	 1500.0	 0.0	 3	   0.000000	   1.149548	   0.000000; % NG
	2	 1500.0	 0.0	 3	   0.000000	   0.714300	   0.000000; % COW
	2	 1500.0	 0.0	 3	   0.000000	   0.616860	   0.000000; % COW
	2	 1500.0	 0.0	 3	   0.000000	   7.063589	   0.000000; % PEL
	2	 1500.0	 0.0	 3	   0.000000	   1.044300	   0.000000; % NG
	2	 1500.0	 0.0	 3	   0.000000	   0.844645	   0.000000; % NG
	2	 1500.0	 0.0	 3	   0.000000	   0.769954	   0.000000; % NG
	2	 1500.0	 0.0	 3	   0.000000	   0.800089	   0.000000; % NG
	2	 1500.0	 0.0	 3	   0.000000	   0.927322	   0.000000; % NG
	2	 1500.0	 0.0	 3	   0.000000	   1.094345	   0.000000; % NG
	2	 1500.0	 0.0	 3	   0.000000	   0.926935	   0.000000; % NG
	2	 1500.0	 0.0	 3	   0.000000	   1.123464	   0.000000; % NG
];

%% branch data
%	fbus	tbus	r	x	b	rateA	rateB	rateC	ratio	angle	status	angmin	angmax
mpc.branch = [
	101	 102	 0.003	 0.014	 0.461	 175.0	 193.0	 200.0	 0.0	 0.0	 1	 -30.0	 30.0;
	101	 103	 0.055	 0.211	 0.057	 175.0	 208.0	 220.0	 0.0	 0.0	 1	 -30.0	 30.0;
	101	 105	 0.022	 0.085	 0.023	 175.0	 208.0	 220.0	 0.0	 0.0	 1	 -30.0	 30.0;
	102	 104	 0.033	 0.127	 0.034	 175.0	 208.0	 220.0	 0.0	 0.0	 1	 -30.0	 30.0;
	102	 106	 0.05	 0.192	 0.052	 175.0	 208.0	 220.0	 0.0	 0.0	 1	 -30.0	 30.0;
	103	 109	 0.031	 0.119	 0.032	 175.0	 208.0	 220.0	 0.0	 0.0	 1	 -30.0	 30.0;
	103	 124	 0.002	 0.084	 0.0	 400.0	 510.0	 600.0	 1.015	 0.0	 1	 -30.0	 30.0;
	104	 109	 0.027	 0.104	 0.028	 175.0	 208.0	 220.0	 0.0	 0.0	 1	 -30.0	 30.0;
	105	 110	 0.023	 0.088	 0.024	 175.0	 208.0	 220.0	 0.0	 0.0	 1	 -30.0	 30.0;
	106	 110	 0.014	 0.061	 2.459	 175.0	 193.0	 200.0	 0.0	 0.0	 1	 -30.0	 30.0;
	107	 108	 0.016	 0.061	 0.017	 175.0	 208.0	 220.0	 0.0	 0.0	 1	 -30.0	 30.0;
	107	 203	 0.042	 0.161	 0.044	 175.0	 208.0	 220.0	 0.0	 0.0	 1	 -30.0	 30.0;
	108	 109	 0.043	 0.165	 0.045	 175.0	 208.0	 220.0	 0.0	 0.0	 1	 -30.0	 30.0;
	108	 110	 0.043	 0.165	 0.045	 175.0	 208.0	 220.0	 0.0	 0.0	 1	 -30.0	 30.0;
	109	 111	 0.002	 0.084	 0.0	 400.0	 510.0	 600.0	 1.03	 0.0	 1	 -30.0	 30.0;
	109	 112	 0.002	 0.084	 0.0	 400.0	 510.0	 600.0	 1.03	 0.0	 1	 -30.0	 30.0;
	110	 111	 0.002	 0.084	 0.0	 400.0	 510.0	 600.0	 1.015	 0.0	 1	 -30.0	 30.0;
	110	 112	 0.002	 0.084	 0.0	 400.0	 510.0	 600.0	 1.015	 0.0	 1	 -30.0	 30.0;
	111	 113	 0.006	 0.048	 0.1	 500.0	 600.0	 625.0	 0.0	 0.0	 1	 -30.0	 30.0;
	111	 114	 0.005	 0.042	 0.088	 500.0	 600.0	 625.0	 0.0	 0.0	 1	 -30.0	 30.0;
	112	 113	 0.006	 0.048	 0.1	 500.0	 600.0	 625.0	 0.0	 0.0	 1	 -30.0	 30.0;
	112	 123	 0.012	 0.097	 0.203	 500.0	 600.0	 625.0	 0.0	 0.0	 1	 -30.0	 30.0;
	113	 123	 0.011	 0.087	 0.182	 500.0	 600.0	 625.0	 0.0	 0.0	 1	 -30.0	 30.0;
	113	 215	 0.01	 0.075	 0.158	 500.0	 600.0	 625.0	 0.0	 0.0	 1	 -30.0	 30.0;
	114	 116	 0.005	 0.059	 0.082	 500.0	 600.0	 625.0	 0.0	 0.0	 1	 -30.0	 30.0;
	115	 116	 0.002	 0.017	 0.036	 500.0	 600.0	 625.0	 0.0	 0.0	 1	 -30.0	 30.0;
	115	 121	 0.006	 0.049	 0.103	 500.0	 600.0	 625.0	 0.0	 0.0	 1	 -30.0	 30.0;
	115	 121	 0.006	 0.049	 0.103	 500.0	 600.0	 625.0	 0.0	 0.0	 1	 -30.0	 30.0;
	115	 124	 0.007	 0.052	 0.109	 500.0	 600.0	 625.0	 0.0	 0.0	 1	 -30.0	 30.0;
	116	 117	 0.003	 0.026	 0.055	 500.0	 600.0	 625.0	 0.0	 0.0	 1	 -30.0	 30.0;
	116	 119	 0.003	 0.023	 0.049	 500.0	 600.0	 625.0	 0.0	 0.0	 1	 -30.0	 30.0;
	117	 118	 0.002	 0.014	 0.03	 500.0	 600.0	 625.0	 0.0	 0.0	 1	 -30.0	 30.0;
	117	 122	 0.014	 0.105	 0.221	 500.0	 600.0	 625.0	 0.0	 0.0	 1	 -30.0	 30.0;
	118	 121	 0.003	 0.026	 0.055	 500.0	 600.0	 625.0	 0.0	 0.0	 1	 -30.0	 30.0;
	118	 121	 0.003	 0.026	 0.055	 500.0	 600.0	 625.0	 0.0	 0.0	 1	 -30.0	 30.0;
	119	 120	 0.005	 0.04	 0.083	 500.0	 600.0	 625.0	 0.0	 0.0	 1	 -30.0	 30.0;
	119	 120	 0.005	 0.04	 0.083	 500.0	 600.0	 625.0	 0.0	 0.0	 1	 -30.0	 30.0;
	120	 123	 0.003	 0.022	 0.046	 500.0	 600.0	 625.0	 0.0	 0.0	 1	 -30.0	 30.0;
	120	 123	 0.003	 0.022	 0.046	 500.0	 600.0	 625.0	 0.0	 0.0	 1	 -30.0	 30.0;
	121	 122	 0.009	 0.068	 0.142	 500.0	 600.0	 625.0	 0.0	 0.0	 1	 -30.0	 30.0;
	123	 217	 0.01	 0.074	 0.155	 500.0	 600.0	 625.0	 0.0	 0.0	 1	 -30.0	 30.0;
	201	 202	 0.003	 0.014	 0.461	 175.0	 193.0	 200.0	 0.0	 0.0	 1	 -30.0	 30.0;
	201	 203	 0.055	 0.211	 0.057	 175.0	 208.0	 220.0	 0.0	 0.0	 1	 -30.0	 30.0;
	201	 205	 0.022	 0.085	 0.023	 175.0	 208.0	 220.0	 0.0	 0.0	 1	 -30.0	 30.0;
	202	 204	 0.033	 0.127	 0.034	 175.0	 208.0	 220.0	 0.0	 0.0	 1	 -30.0	 30.0;
	202	 206	 0.05	 0.192	 0.052	 175.0	 208.0	 220.0	 0.0	 0.0	 1	 -30.0	 30.0;