%%%%%%%%%%%%%%%%%%%%%%%%%%%%%%%%%%%%%%%%%%%%%%%%%%%%%%%%%%%%%%%%%%%%%%%%%%%
%%%%                                                                  %%%%%
%%%%    IEEE PES Power Grid Library - Optimal Power Flow - v17.07     %%%%%
%%%%          (https://github.com/power-grid-lib/pglib-opf)           %%%%%
%%%%             Benchmark Group - Active Power Increase              %%%%%
%%%%                         27 - June - 2017                         %%%%%
%%%%                                                                  %%%%%
%%%%%%%%%%%%%%%%%%%%%%%%%%%%%%%%%%%%%%%%%%%%%%%%%%%%%%%%%%%%%%%%%%%%%%%%%%%
function mpc = pglib_opf_case240_pserc__api
mpc.version = '2';
mpc.baseMVA = 100.0;

%% bus data
%	bus_i	type	Pd	Qd	Gs	Bs	area	Vm	Va	baseKV	zone	Vmax	Vmin
mpc.bus = [
	1001	 1	 0.00	 0.00	 0.0	 0.0	 10	    1.01114	  -33.42463	 500.0	 1	    1.10000	    0.90000;
	1002	 1	 226.84	 -37.47	 0.0	 0.0	 10	    0.99879	  -32.82878	 345.0	 1	    1.10000	    0.90000;
	1003	 1	 2825.92	 366.86	 0.0	 0.0	 10	    0.94615	  -44.74772	 230.0	 1	    1.10000	    0.90000;
	1004	 1	 1362.16	 5.52	 0.0	 0.0	 10	    0.99538	  -30.50646	 345.0	 1	    1.10000	    0.90000;
	1032	 2	 0.00	 0.00	 0.0	 0.0	 10	    1.00006	  -32.10543	 20.0	 1	    1.10000	    0.90000;
	1034	 2	 0.00	 0.00	 0.0	 0.0	 10	    0.99368	  -29.83072	 20.0	 1	    1.10000	    0.90000;
	1101	 1	 4527.37	 -137.04	 0.0	 0.0	 10	    1.01827	  -31.44971	 500.0	 1	    1.10000	    0.90000;
	1102	 1	 231.56	 23.00	 0.0	 0.0	 10	    1.02023	  -32.61441	 345.0	 1	    1.10000	    0.90000;
	1131	 2	 0.00	 0.00	 0.0	 0.0	 10	    1.01720	  -29.95794	 20.0	 1	    1.10000	    0.90000;
	1201	 1	 166.99	 -2.01	 0.0	 0.0	 10	    1.02889	  -35.74949	 500.0	 1	    1.10000	    0.90000;
	1202	 1	 1149.11	 287.13	 0.0	 0.0	 10	    0.98617	  -36.68952	 500.0	 1	    1.10000	    0.90000;
	1232	 2	 0.00	 0.00	 0.0	 0.0	 10	    0.98078	  -36.09775	 20.0	 1	    1.10000	    0.90000;
	1301	 1	 3549.63	 352.83	 0.0	 0.0	 10	    1.02834	  -33.66094	 500.0	 1	    1.10000	    0.90000;
	1302	 1	 23.04	 2.30	 0.0	 0.0	 10	    1.00733	  -48.85089	 500.0	 1	    1.10000	    0.90000;
	1303	 1	 8182.71	 813.35	 0.0	 0.0	 10	    1.05244	  -57.36301	 345.0	 1	    1.10000	    0.90000;
	1331	 2	 0.00	 0.00	 0.0	 0.0	 10	    1.02979	  -32.33660	 20.0	 1	    1.10000	    0.90000;
	1333	 2	 0.00	 0.00	 0.0	 0.0	 10	    1.06024	  -55.86735	 20.0	 1	    1.10000	    0.90000;
	1401	 1	 8576.94	 1524.59	 0.0	 0.0	 10	    1.01444	  -34.84175	 500.0	 1	    1.10000	    0.90000;
	1402	 1	 5366.63	 -600.16	 0.0	 0.0	 10	    1.03011	  -43.73853	 500.0	 1	    1.10000	    0.90000;
	1403	 1	 0.00	 0.00	 0.0	 0.0	 10	    1.01453	  -31.93051	 230.0	 1	    1.10000	    0.90000;
	1431	 2	 0.00	 0.00	 0.0	 0.0	 10	    1.02082	  -32.16342	 20.0	 1	    1.10000	    0.90000;
	2000	 1	 2896.61	 287.92	 0.0	 0.0	 20	    1.09749	  -16.39432	 230.0	 1	    1.10000	    0.90000;
	2030	 2	 0.00	 0.00	 0.0	 0.0	 20	    1.09986	  -15.66001	 20.0	 1	    1.10000	    0.90000;
	2100	 1	 368.97	 54.83	 0.0	 0.0	 21	    1.07488	  -17.76116	 230.0	 1	    1.10000	    0.90000;
	2130	 2	 0.00	 0.00	 0.0	 0.0	 21	    1.07780	  -17.13923	 20.0	 1	    1.10000	    0.90000;
	2201	 1	 0.00	 0.00	 0.0	 0.0	 22	    1.04606	  -21.62911	 500.0	 1	    1.10000	    0.90000;
	2202	 1	 2028.83	 268.56	 0.0	 0.0	 22	    1.04451	  -22.00773	 230.0	 1	    1.10000	    0.90000;
	2203	 1	 2242.23	 278.27	 0.0	 0.0	 22	    1.08043	  -13.84822	 230.0	 1	    1.10000	    0.90000;
	2233	 2	 0.00	 0.00	 0.0	 0.0	 22	    1.08298	  -12.94939	 20.0	 1	    1.10000	    0.90000;
	2301	 1	 0.00	 0.00	 0.0	 0.0	 22	    1.04088	  -17.74148	 500.0	 1	    1.10000	    0.90000;
	2302	 1	 0.00	 0.00	 0.0	 0.0	 22	    1.03880	  -15.95224	 230.0	 1	    1.10000	    0.90000;
	2332	 2	 0.00	 0.00	 0.0	 0.0	 22	    1.03760	  -15.57827	 20.0	 1	    1.10000	    0.90000;
	2400	 1	 1106.70	 76.66	 0.0	 0.0	 24	    1.04132	  -30.50787	 500.0	 1	    1.10000	    0.90000;
	2401	 1	 1157.97	 105.21	 0.0	 0.0	 24	    1.05404	  -24.32160	 500.0	 1	    1.10000	    0.90000;
	2402	 1	 1417.37	 81.98	 0.0	 0.0	 24	    1.04655	  -27.16806	 500.0	 1	    1.10000	    0.90000;
	2403	 1	 1377.98	 38.54	 0.0	 0.0	 24	    1.03916	  -32.45642	 500.0	 1	    1.10000	    0.90000;
	2404	 1	 0.00	 0.00	 0.0	 0.0	 24	    1.03926	  -19.39583	 500.0	 1	    1.10000	    0.90000;
	2405	 1	 1082.28	 22.90	 0.0	 0.0	 24	    1.03592	   -7.88521	 230.0	 1	    1.10000	    0.90000;
	2406	 1	 737.40	 -40.75	 0.0	 0.0	 24	    1.04355	  -14.87651	 230.0	 1	    1.10000	    0.90000;
	2407	 1	 1732.77	 -36.53	 0.0	 0.0	 24	    1.02882	  -22.87414	 230.0	 1	    1.10000	    0.90000;
	2408	 1	 1743.28	 -72.62	 0.0	 0.0	 24	    1.06432	  -11.25742	 230.0	 1	    1.10000	    0.90000;
	2409	 1	 1601.78	 -86.70	 0.0	 0.0	 24	    1.04443	  -26.73031	 230.0	 1	    1.10000	    0.90000;
	2410	 1	 2069.30	 58.18	 0.0	 0.0	 24	    1.02176	  -15.96387	 230.0	 1	    1.10000	    0.90000;
	2411	 1	 1427.35	 75.95	 0.0	 0.0	 24	    1.03320	  -20.45561	 230.0	 1	    1.10000	    0.90000;
	2438	 2	 0.00	 0.00	 0.0	 0.0	 24	    1.06796	   -9.63837	 20.0	 1	    1.10000	    0.90000;
	2501	 1	 0.00	 0.00	 0.0	 0.0	 25	    1.04353	  -27.67011	 500.0	 1	    1.10000	    0.90000;
	2502	 1	 2369.15	 -91.91	 0.0	 0.0	 25	    1.04091	  -27.44264	 230.0	 1	    1.10000	    0.90000;
	2503	 1	 2422.51	 201.99	 0.0	 0.0	 25	    1.06962	  -15.91296	 230.0	 1	    1.10000	    0.90000;
	2533	 2	 0.00	 0.00	 0.0	 0.0	 25	    1.07200	  -14.70187	 20.0	 1	    1.10000	    0.90000;
	2600	 1	 -1863.90	 0.00	 0.0	 0.0	 90	    1.05179	  -18.91804	 500.0	 1	    1.10000	    0.90000;
	2601	 1	 0.00	 0.00	 0.0	 0.0	 26	    1.05181	  -13.52146	 500.0	 1	    1.10000	    0.90000;
	2602	 1	 130.29	 12.96	 0.0	 0.0	 26	    1.03049	  -14.38412	 500.0	 1	    1.10000	    0.90000;
	2603	 1	 0.00	 0.00	 0.0	 0.0	 26	    1.05256	  -20.12199	 500.0	 1	    1.10000	    0.90000;
	2604	 1	 2050.78	 0.00	 0.0	 0.0	 90	    1.09938	  -36.37355	 345.0	 1	    1.10000	    0.90000;
	2605	 1	 0.00	 0.00	 0.0	 0.0	 26	    1.03536	  -18.01786	 287.0	 1	    1.10000	    0.90000;
	2606	 1	 0.00	 0.00	 0.0	 0.0	 26	    1.03536	  -18.01786	 287.0	 1	    1.10000	    0.90000;
	2607	 1	 0.00	 0.00	 0.0	 0.0	 26	    1.05060	  -19.39867	 287.0	 1	    1.10000	    0.90000;
	2608	 1	 130.29	 12.96	 0.0	 0.0	 26	    1.04941	   -3.49621	 230.0	 1	    1.10000	    0.90000;
	2609	 1	 175.89	 26.80	 0.0	 0.0	 26	    1.01631	  -13.28411	 230.0	 1	    1.10000	    0.90000;
	2610	 1	 130.29	 12.96	 0.0	 0.0	 26	    1.02112	  -12.13582	 230.0	 1	    1.10000	    0.90000;
	2611	 1	 130.29	 12.96	 0.0	 0.0	 26	    1.05265	   -1.12584	 230.0	 1	    1.10000	    0.90000;
	2612	 1	 157.65	 24.82	 0.0	 0.0	 26	    1.04651	   -4.55378	 230.0	 1	    1.10000	    0.90000;
	2613	 1	 416.93	 64.53	 0.0	 0.0	 26	    1.01503	  -14.87136	 230.0	 1	    1.10000	    0.90000;
	2614	 1	 179.80	 27.80	 0.0	 0.0	 26	    1.02029	  -16.67584	 230.0	 1	    1.10000	    0.90000;
	2615	 1	 1052.48	 131.15	 0.0	 0.0	 26	    1.01927	  -11.96781	 230.0	 1	    1.10000	    0.90000;
	2616	 1	 152.44	 23.83	 0.0	 0.0	 26	    1.01643	  -15.30613	 230.0	 1	    1.10000	    0.90000;
	2617	 1	 157.65	 24.82	 0.0	 0.0	 26	    1.01628	  -13.74467	 230.0	 1	    1.10000	    0.90000;
	2618	 1	 881.30	 -6.16	 0.0	 0.0	 26	    1.04395	   -5.56964	 230.0	 1	    1.10000	    0.90000;
	2619	 1	 -2773.83	 0.00	 0.0	 0.0	 90	    1.03995	   -5.37598	 230.0	 1	    1.10000	    0.90000;
	2620	 1	 267.35	 17.47	 0.0	 0.0	 26	    1.03317	   -7.70605	 230.0	 1	    1.10000	    0.90000;
	2621	 1	 235.49	 -62.74	 0.0	 0.0	 26	    1.02931	  -17.76396	 138.0	 1	    1.10000	    0.90000;
	2630	 2	 0.00	 0.00	 0.0	 0.0	 26	    1.02130	  -11.95264	 20.0	 1	    1.10000	    0.90000;
	2631	 2	 0.00	 0.00	 0.0	 0.0	 26	    1.05319	   -0.66303	 20.0	 1	    1.10000	    0.90000;
	2634	 2	 0.00	 0.00	 0.0	 0.0	 90	    1.10000	  -35.44039	 20.0	 1	    1.10000	    0.90000;
	2637	 2	 0.00	 0.00	 0.0	 0.0	 26	    1.05076	   -3.32923	 20.0	 1	    1.10000	    0.90000;
	2638	 2	 0.00	 0.00	 0.0	 0.0	 26	    1.04957	   -3.43405	 20.0	 1	    1.10000	    0.90000;
	2901	 1	 0.00	 0.00	 0.0	 0.0	 24	    1.08215	  -28.70175	 500.0	 1	    1.10000	    0.90000;
	2902	 1	 0.00	 0.00	 0.0	 0.0	 24	    1.10000	  -27.43106	 500.0	 1	    1.10000	    0.90000;
	3101	 1	 447.91	 52.83	 0.0	 0.0	 31	    1.03951	   -9.98561	 230.0	 1	    1.10000	    0.90000;
	3102	 1	 209.27	 24.93	 0.0	 0.0	 31	    1.04514	   -8.49928	 230.0	 1	    1.10000	    0.90000;
	3103	 1	 550.68	 59.78	 0.0	 0.0	 32	    1.05586	   -6.15835	 230.0	 1	    1.10000	    0.90000;
	3104	 1	 406.79	 40.13	 0.0	 0.0	 31	    1.05534	   -8.12368	 115.0	 1	    1.10000	    0.90000;
	3105	 1	 314.05	 49.09	 0.0	 0.0	 31	    1.09261	   -2.02057	 115.0	 1	    1.10000	    0.90000;
	3133	 2	 0.00	 0.00	 0.0	 0.0	 32	    1.05850	   -5.88075	 20.0	 1	    1.10000	    0.90000;
	3135	 2	 0.00	 0.00	 0.0	 0.0	 31	    1.09333	   -1.84036	 20.0	 1	    1.10000	    0.90000;
	3201	 1	 606.93	 97.85	 0.0	 0.0	 32	    1.00862	   -8.27773	 230.0	 1	    1.10000	    0.90000;
	3202	 1	 769.28	 83.47	 0.0	 0.0	 32	    1.02034	   -8.21216	 230.0	 1	    1.10000	    0.90000;
	3203	 1	 862.35	 158.48	 0.0	 0.0	 32	    1.02135	   -7.76059	 230.0	 1	    1.10000	    0.90000;
	3204	 1	 877.69	 95.31	 0.0	 0.0	 32	    1.06157	   -3.31408	 230.0	 1	    1.10000	    0.90000;
	3205	 1	 716.63	 77.78	 0.0	 0.0	 32	    1.04038	   -7.21346	 230.0	 1	    1.10000	    0.90000;
	3234	 2	 0.00	 0.00	 0.0	 0.0	 32	    1.06844	   -2.24688	 20.0	 1	    1.10000	    0.90000;
	3301	 1	 0.00	 0.00	 0.0	 0.0	 32	    1.04048	   -8.44947	 500.0	 1	    1.10000	    0.90000;
	3302	 1	 453.19	 85.79	 0.0	 0.0	 32	    1.02776	  -11.44527	 230.0	 1	    1.10000	    0.90000;
	3303	 1	 820.76	 150.72	 0.0	 0.0	 32	    1.03395	   -9.80038	 230.0	 1	    1.10000	    0.90000;
	3304	 1	 700.12	 122.62	 0.0	 0.0	 32	    1.02701	  -11.40483	 230.0	 1	    1.10000	    0.90000;
	3305	 1	 564.73	 61.23	 0.0	 0.0	 32	    1.03544	   -7.15382	 230.0	 1	    1.10000	    0.90000;
	3333	 2	 0.00	 0.00	 0.0	 0.0	 32	    1.03596	   -9.54015	 20.0	 1	    1.10000	    0.90000;
	3401	 1	 731.91	 135.91	 0.0	 0.0	 34	    0.99345	  -28.97369	 230.0	 1	    1.10000	    0.90000;
	3402	 1	 0.00	 0.00	 0.0	 0.0	 34	    1.04853	  -36.42623	 230.0	 1	    1.10000	    0.90000;
	3403	 1	 677.13	 73.58	 0.0	 0.0	 34	    1.09734	   -6.67724	 230.0	 1	    1.10000	    0.90000;
	3404	 1	 575.42	 62.08	 0.0	 0.0	 34	    1.01913	  -17.98522	 230.0	 1	    1.10000	    0.90000;
	3405	 1	 589.11	 63.72	 0.0	 0.0	 34	    0.96197	  -27.01755	 230.0	 1	    1.10000	    0.90000;
	3432	 2	 0.00	 0.00	 0.0	 0.0	 34	    1.05111	  -36.65399	 20.0	 1	    1.10000	    0.90000;
	3433	 2	 0.00	 0.00	 0.0	 0.0	 34	    1.10000	   -6.16317	 20.0	 1	    1.10000	    0.90000;
	3501	 1	 820.24	 89.02	 0.0	 0.0	 35	    1.06977	   -7.53369	 230.0	 1	    1.10000	    0.90000;
	3531	 2	 0.00	 0.00	 0.0	 0.0	 35	    1.07113	   -7.24993	 20.0	 1	    1.10000	    0.90000;
	3601	 1	 137.61	 14.84	 0.0	 0.0	 36	    1.09965	    3.07499	 115.0	 1	    1.10000	    0.90000;
	3631	 2	 0.00	 0.00	 0.0	 0.0	 36	    1.10000	    3.20477	 20.0	 1	    1.10000	    0.90000;
	3701	 1	 416.08	 15.85	 0.0	 0.0	 37	    1.00992	    5.71813	 115.0	 1	    1.10000	    0.90000;
	3731	 2	 0.00	 0.00	 0.0	 0.0	 37	    1.01522	    6.71254	 20.0	 1	    1.10000	    0.90000;
	3801	 1	 250.95	 47.41	 0.0	 0.0	 38	    1.00564	  -11.54290	 500.0	 1	    1.10000	    0.90000;
	3802	 1	 0.00	 0.00	 0.0	 0.0	 38	    1.02841	  -15.64160	 500.0	 1	    1.10000	    0.90000;
	3803	 1	 0.00	 0.00	 0.0	 0.0	 38	    1.03691	  -16.19169	 500.0	 1	    1.10000	    0.90000;
	3804	 1	 293.50	 55.32	 0.0	 0.0	 38	    1.03156	  -16.55494	 230.0	 1	    1.10000	    0.90000;
	3805	 1	 655.38	 163.11	 0.0	 0.0	 38	    1.02160	  -11.00443	 230.0	 1	    1.10000	    0.90000;
	3806	 1	 380.04	 41.37	 0.0	 0.0	 38	    1.09263	   -9.71012	 230.0	 1	    1.10000	    0.90000;
	3831	 2	 0.00	 0.00	 0.0	 0.0	 38	    1.00273	  -11.13806	 20.0	 1	    1.10000	    0.90000;
	3835	 2	 0.00	 0.00	 0.0	 0.0	 38	    1.02035	  -10.48379	 20.0	 1	    1.10000	    0.90000;
	3836	 2	 0.00	 0.00	 0.0	 0.0	 38	    1.09487	   -9.47472	 20.0	 1	    1.10000	    0.90000;
	3891	 1	 0.00	 0.00	 0.0	 0.0	 38	    1.03815	  -17.03819	 500.0	 1	    1.10000	    0.90000;
	3892	 1	 0.00	 0.00	 0.0	 0.0	 38	    1.01875	  -12.56136	 500.0	 1	    1.10000	    0.90000;
	3893	 1	 0.00	 0.00	 0.0	 0.0	 38	    1.04589	  -22.89361	 500.0	 1	    1.10000	    0.90000;
	3894	 1	 0.00	 0.00	 0.0	 0.0	 38	    1.01837	  -12.50085	 500.0	 1	    1.10000	    0.90000;
	3895	 1	 0.00	 0.00	 0.0	 0.0	 38	    1.04618	  -22.91542	 500.0	 1	    1.10000	    0.90000;
	3896	 1	 0.00	 0.00	 0.0	 0.0	 38	    1.01826	  -12.31474	 500.0	 1	    1.10000	    0.90000;
	3897	 1	 0.00	 0.00	 0.0	 0.0	 38	    1.04747	  -22.74526	 500.0	 1	    1.10000	    0.90000;
	3901	 1	 0.00	 0.00	 0.0	 0.0	 39	    1.01514	  -16.90924	 500.0	 1	    1.10000	    0.90000;
	3902	 1	 200.78	 38.25	 0.0	 0.0	 39	    1.01415	   -7.07014	 500.0	 1	    1.10000	    0.90000;
	3903	 1	 279.86	 30.27	 0.0	 0.0	 39	    1.01630	   -9.48417	 500.0	 1	    1.10000	    0.90000;
	3904	 1	 0.00	 0.00	 0.0	 0.0	 39	    0.93695	   -8.75599	 500.0	 1	    1.10000	    0.90000;
	3905	 1	 0.00	 0.00	 0.0	 0.0	 39	    0.96729	   -8.97367	 500.0	 1	    1.10000	    0.90000;
	3906	 1	 0.00	 0.00	 0.0	 0.0	 39	    0.96573	   -7.92859	 500.0	 1	    1.10000	    0.90000;
	3907	 1	 605.46	 63.07	 0.0	 0.0	 39	    0.95375	  -19.68628	 230.0	 1	    1.10000	    0.90000;
	3908	 1	 262.84	 24.72	 0.0	 0.0	 39	    0.94746	  -17.92974	 230.0	 1	    1.10000	    0.90000;
	3909	 1	 224.36	 39.78	 0.0	 0.0	 39	    0.94102	  -16.28200	 230.0	 1	    1.10000	    0.90000;
	3910	 1	 317.38	 34.44	 0.0	 0.0	 39	    0.95735	  -21.00043	 230.0	 1	    1.10000	    0.90000;
	3911	 1	 305.96	 47.11	 0.0	 0.0	 39	    1.06641	   -8.63215	 230.0	 1	    1.10000	    0.90000;
	3912	 1	 174.50	 -0.63	 0.0	 0.0	 39	    1.03482	  -14.95344	 230.0	 1	    1.10000	    0.90000;
	3913	 1	 432.48	 43.44	 0.0	 0.0	 39	    0.97757	   -9.96475	 230.0	 1	    1.10000	    0.90000;
	3914	 1	 298.89	 52.55	 0.0	 0.0	 39	    1.04486	   -9.58886	 230.0	 1	    1.10000	    0.90000;
	3915	 1	 333.94	 53.40	 0.0	 0.0	 39	    1.02871	   -9.82591	 230.0	 1	    1.10000	    0.90000;
	3916	 1	 155.00	 0.00	 0.0	 0.0	 39	    1.02879	  -14.68642	 230.0	 1	    1.10000	    0.90000;
	3917	 1	 312.59	 43.99	 0.0	 0.0	 39	    1.01083	  -19.19251	 230.0	 1	    1.10000	    0.90000;
	3918	 1	 419.01	 75.46	 0.0	 0.0	 39	    1.01777	  -11.97884	 230.0	 1	    1.10000	    0.90000;
	3919	 1	 242.14	 24.09	 0.0	 0.0	 39	    0.94126	  -17.10558	 230.0	 1	    1.10000	    0.90000;
	3920	 1	 226.38	 23.68	 0.0	 0.0	 39	    0.95984	  -11.41314	 230.0	 1	    1.10000	    0.90000;
	3921	 1	 198.02	 34.82	 0.0	 0.0	 39	    1.08999	   -4.66229	 230.0	 1	    1.10000	    0.90000;
	3922	 1	 332.61	 31.92	 0.0	 0.0	 39	    0.95477	  -13.48061	 230.0	 1	    1.10000	    0.90000;
	3923	 1	 523.71	 67.02	 0.0	 0.0	 39	    1.00858	   -1.55409	 230.0	 1	    1.10000	    0.90000;
	3924	 1	 436.34	 47.16	 0.0	 0.0	 39	    0.99625	   -9.67679	 230.0	 1	    1.10000	    0.90000;
	3925	 1	 0.00	 0.00	 0.0	 0.0	 39	    1.07454	   -2.56950	 115.0	 1	    1.10000	    0.90000;
	3926	 1	 350.86	 16.67	 0.0	 0.0	 39	    0.96616	   -4.01852	 115.0	 1	    1.10000	    0.90000;
	3931	 2	 0.00	 0.00	 0.0	 0.0	 39	    1.09401	   -4.44055	 20.0	 1	    1.10000	    0.90000;
	3932	 2	 0.00	 0.00	 0.0	 0.0	 39	    1.01358	   -6.44194	 20.0	 1	    1.10000	    0.90000;
	3933	 3	 0.00	 0.00	 0.0	 0.0	 39	    1.00719	    0.00000	 20.0	 1	    1.10000	    0.90000;
	4001	 1	 0.00	 0.00	 0.0	 0.0	 40	    0.94685	   -7.62835	 500.0	 1	    1.10000	    0.90000;
	4002	 1	 221.37	 22.00	 0.0	 0.0	 40	    1.00516	  -18.12507	 500.0	 1	    1.10000	    0.90000;
	4003	 1	 0.00	 0.00	 0.0	 0.0	 40	    1.09294	  -26.76003	 500.0	 1	    1.10000	    0.90000;
	4004	 1	 354.93	 35.30	 0.0	 0.0	 40	    0.98780	  -19.57066	 500.0	 1	    1.10000	    0.90000;
	4005	 1	 630.08	 157.42	 0.0	 0.0	 40	    1.01722	  -27.43749	 500.0	 1	    1.10000	    0.90000;
	4006	 1	 0.00	 0.00	 0.0	 0.0	 40	    0.97206	  -30.59139	 500.0	 1	    1.10000	    0.90000;
	4007	 1	 0.00	 0.00	 0.0	 0.0	 40	    0.96922	  -30.76857	 500.0	 1	    1.10000	    0.90000;
	4008	 1	 374.21	 37.20	 0.0	 0.0	 40	    0.94492	  -11.12636	 345.0	 1	    1.10000	    0.90000;
	4009	 1	 2898.65	 431.39	 0.0	 0.0	 40	    0.91988	  -33.08170	 230.0	 1	    1.10000	    0.90000;
	4010	 1	 3133.61	 0.00	 0.0	 0.0	 90	    0.93005	  -33.58060	 230.0	 1	    1.10000	    0.90000;
	4031	 2	 0.00	 0.00	 0.0	 0.0	 40	    0.93558	   -5.07044	 20.0	 1	    1.10000	    0.90000;
	4035	 2	 0.00	 0.00	 0.0	 0.0	 40	    1.02055	  -26.60930	 20.0	 1	    1.10000	    0.90000;
	4039	 2	 0.00	 0.00	 0.0	 0.0	 40	    0.90886	  -31.46137	 20.0	 1	    1.10000	    0.90000;
	4090	 1	 0.00	 0.00	 0.0	 0.0	 40	    0.99607	  -16.67038	 500.0	 1	    1.10000	    0.90000;
	4091	 1	 0.00	 0.00	 0.0	 0.0	 40	    0.99867	  -18.97533	 500.0	 1	    1.10000	    0.90000;
	4092	 1	 0.00	 0.00	 0.0	 0.0	 40	    0.95550	  -10.74823	 500.0	 1	    1.10000	    0.90000;
	4093	 1	 0.00	 0.00	 0.0	 0.0	 40	    0.95123	   -9.57046	 500.0	 1	    1.10000	    0.90000;
	4094	 1	 0.00	 0.00	 0.0	 0.0	 40	    0.99375	  -18.27155	 500.0	 1	    1.10000	    0.90000;
	4095	 1	 0.00	 0.00	 0.0	 0.0	 40	    0.95288	  -10.23215	 500.0	 1	    1.10000	    0.90000;
	4096	 1	 0.00	 0.00	 0.0	 0.0	 40	    0.94843	   -8.98238	 500.0	 1	    1.10000	    0.90000;
	4097	 1	 0.00	 0.00	 0.0	 0.0	 40	    0.99359	  -18.19575	 500.0	 1	    1.10000	    0.90000;
	4101	 1	 1305.83	 129.78	 0.0	 0.0	 40	    1.09921	  -38.25021	 500.0	 1	    1.10000	    0.90000;
	4102	 1	 630.78	 68.66	 0.0	 0.0	 40	    1.09558	  -33.10719	 500.0	 1	    1.10000	    0.90000;
	4103	 1	 15.26	 1.51	 0.0	 0.0	 40	    1.01652	  -46.63735	 500.0	 1	    1.10000	    0.90000;
	4104	 1	 3317.33	 329.74	 0.0	 0.0	 40	    0.92613	  -54.51547	 230.0	 1	    1.10000	    0.90000;
	4131	 2	 0.00	 0.00	 0.0	 0.0	 40	    1.10000	  -37.93983	 20.0	 1	    1.10000	    0.90000;
	4132	 2	 0.00	 0.00	 0.0	 0.0	 40	    1.10000	  -32.70687	 20.0	 1	    1.10000	    0.90000;
	4201	 1	 7562.65	 461.01	 0.0	 0.0	 40	    1.09710	  -38.17085	 500.0	 1	    1.10000	    0.90000;
	4202	 1	 5982.03	 594.63	 0.0	 0.0	 40	    1.06082	  -29.04809	 500.0	 1	    1.10000	    0.90000;
	4203	 1	 5747.62	 571.33	 0.0	 0.0	 40	    1.00947	  -31.58091	 500.0	 1	    1.10000	    0.90000;
	4204	 1	 1331.41	 132.34	 0.0	 0.0	 40	    0.92119	  -13.46711	 500.0	 1	    1.10000	    0.90000;
	4231	 2	 0.00	 0.00	 0.0	 0.0	 40	    1.10000	  -37.43802	 20.0	 1	    1.10000	    0.90000;
	4232	 2	 0.00	 0.00	 0.0	 0.0	 40	    1.07552	  -25.94033	 20.0	 1	    1.10000	    0.90000;
	5001	 1	 9939.84	 1721.38	 0.0	 0.0	 50	    1.06426	  -24.07193	 500.0	 1	    1.10000	    0.90000;
	5002	 1	 11816.42	 1174.36	 0.0	 0.0	 50	    0.97354	  -32.67218	 500.0	 1	    1.10000	    0.90000;
	5003	 1	 807.38	 80.25	 0.0	 0.0	 50	    0.95450	  -40.94883	 230.0	 1	    1.10000	    0.90000;
	5004	 1	 0.00	 0.00	 0.0	 0.0	 50	    0.94126	  -47.67552	 230.0	 1	    1.10000	    0.90000;
	5031	 2	 0.00	 0.00	 0.0	 0.0	 50	    1.07206	  -21.21916	 20.0	 1	    1.10000	    0.90000;
	5032	 2	 0.00	 0.00	 0.0	 0.0	 50	    0.98164	  -28.79384	 20.0	 1	    1.10000	    0.90000;
	6101	 1	 0.00	 0.00	 0.0	 0.0	 61	    1.10000	  -35.43146	 500.0	 1	    1.10000	    0.90000;
	6102	 1	 1053.14	 -345.28	 0.0	 0.0	 61	    1.08938	  -37.70365	 345.0	 1	    1.10000	    0.90000;
	6103	 1	 514.30	 51.11	 0.0	 0.0	 61	    1.06301	  -43.97724	 345.0	 1	    1.10000	    0.90000;
	6104	 1	 2224.39	 221.09	 0.0	 0.0	 61	    0.99188	  -60.12999	 230.0	 1	    1.10000	    0.90000;
	6132	 2	 0.00	 0.00	 0.0	 0.0	 61	    1.08968	  -37.14748	 20.0	 1	    1.10000	    0.90000;
	6201	 1	 270.11	 26.86	 0.0	 0.0	 60	    1.10000	  -36.17628	 500.0	 1	    1.10000	    0.90000;
	6202	 1	 116.43	 13.53	 0.0	 0.0	 60	    1.10000	  -37.45659	 500.0	 1	    1.10000	    0.90000;
	6203	 1	 1459.79	 145.09	 0.0	 0.0	 60	    1.09278	  -43.11194	 230.0	 1	    1.10000	    0.90000;
	6204	 1	 1573.90	 156.46	 0.0	 0.0	 60	    1.08262	  -44.41009	 230.0	 1	    1.10000	    0.90000;
	6205	 1	 642.11	 86.34	 0.0	 0.0	 60	    1.10000	  -31.15051	 230.0	 1	    1.10000	    0.90000;
	6231	 2	 0.00	 0.00	 0.0	 0.0	 60	    1.09938	  -35.87708	 20.0	 1	    1.10000	    0.90000;
	6235	 2	 0.00	 0.00	 0.0	 0.0	 60	    1.09873	  -30.65829	 20.0	 1	    1.10000	    0.90000;
	6301	 1	 677.67	 67.36	 0.0	 0.0	 60	    1.07096	  -41.80494	 345.0	 1	    1.10000	    0.90000;
	6302	 1	 776.68	 77.22	 0.0	 0.0	 60	    0.95436	  -44.93202	 345.0	 1	    1.10000	    0.90000;
	6303	 1	 979.81	 97.40	 0.0	 0.0	 60	    1.09860	  -35.28496	 230.0	 1	    1.10000	    0.90000;
	6304	 1	 0.00	 0.00	 0.0	 0.0	 60	    0.99329	  -43.07847	 230.0	 1	    1.10000	    0.90000;
	6305	 1	 79.05	 19.75	 0.0	 0.0	 60	    1.09920	  -45.05438	 230.0	 1	    1.10000	    0.90000;
	6333	 2	 0.00	 0.00	 0.0	 0.0	 60	    1.10000	  -34.65698	 20.0	 1	    1.10000	    0.90000;
	6335	 2	 0.00	 0.00	 0.0	 0.0	 60	    1.10000	  -44.95402	 20.0	 1	    1.10000	    0.90000;
	6401	 1	 2194.75	 218.15	 0.0	 0.0	 64	    0.94910	  -27.81149	 345.0	 1	    1.10000	    0.90000;
	6402	 1	 357.63	 35.57	 0.0	 0.0	 64	    0.93378	  -12.25486	 115.0	 1	    1.10000	    0.90000;
	6403	 1	 2.89	 0.27	 0.0	 0.0	 64	    1.09876	  -22.59162	 345.0	 1	    1.10000	    0.90000;
	6404	 1	 38.03	 3.77	 0.0	 0.0	 64	    1.07699	  -32.66530	 345.0	 1	    1.10000	    0.90000;
	6433	 2	 0.00	 0.00	 0.0	 0.0	 64	    1.10000	  -22.32952	 20.0	 1	    1.10000	    0.90000;
	6501	 1	 256.63	 64.13	 0.0	 0.0	 60	    1.07583	  -48.79855	 345.0	 1	    1.10000	    0.90000;
	6502	 1	 2041.47	 277.67	 0.0	 0.0	 60	    1.08145	  -48.39331	 345.0	 1	    1.10000	    0.90000;
	6503	 1	 578.95	 144.60	 0.0	 0.0	 60	    1.10000	  -38.11330	 345.0	 1	    1.10000	    0.90000;
	6504	 1	 389.73	 38.73	 0.0	 0.0	 60	    1.08959	  -47.89525	 345.0	 1	    1.10000	    0.90000;
	6505	 1	 8.92	 2.23	 0.0	 0.0	 60	    1.07739	  -35.47691	 345.0	 1	    1.10000	    0.90000;
	6506	 1	 0.00	 0.00	 0.0	 0.0	 60	    1.05696	  -34.81531	 345.0	 1	    1.10000	    0.90000;
	6507	 1	 540.77	 -61.35	 0.0	 0.0	 60	    1.10000	  -45.22514	 345.0	 1	    1.10000	    0.90000;
	6508	 1	 173.01	 43.21	 0.0	 0.0	 60	    1.08246	  -46.24317	 345.0	 1	    1.10000	    0.90000;
	6509	 1	 11.28	 2.82	 0.0	 0.0	 60	    1.07976	  -48.53276	 345.0	 1	    1.10000	    0.90000;
	6510	 1	 1946.02	 -103.88	 0.0	 0.0	 60	    1.07509	  -55.56238	 230.0	 1	    1.10000	    0.90000;
	6533	 2	 0.00	 0.00	 0.0	 0.0	 60	    1.09987	  -37.38025	 20.0	 1	    1.10000	    0.90000;
	7001	 1	 9782.18	 972.35	 0.0	 0.0	 60	    0.94891	  -43.17400	 345.0	 1	    1.10000	    0.90000;
	7002	 1	 2554.83	 -138.07	 0.0	 0.0	 60	    1.05101	  -39.51668	 345.0	 1	    1.10000	    0.90000;
	7031	 2	 0.00	 0.00	 0.0	 0.0	 60	    0.94334	  -40.31552	 20.0	 1	    1.10000	    0.90000;
	7032	 2	 0.00	 0.00	 0.0	 0.0	 60	    1.06090	  -38.51050	 20.0	 1	    1.10000	    0.90000;
	8001	 1	 0.00	 0.00	 0.0	 0.0	 80	    1.02047	   -7.29158	 500.0	 1	    1.10000	    0.90000;
	8002	 1	 0.00	 0.00	 0.0	 0.0	 80	    1.04379	   -4.56516	 500.0	 1	    1.10000	    0.90000;
	8003	 1	 856.54	 85.14	 0.0	 0.0	 80	    1.09685	  -10.74413	 230.0	 1	    1.10000	    0.90000;
	8004	 1	 4971.06	 494.11	 0.0	 0.0	 80	    1.09603	   -5.44725	 230.0	 1	    1.10000	    0.90000;
	8005	 1	 1733.93	 172.37	 0.0	 0.0	 80	    1.00090	  -14.68913	 230.0	 1	    1.10000	    0.90000;
	8033	 2	 0.00	 0.00	 0.0	 0.0	 80	    1.10000	  -10.65438	 20.0	 1	    1.10000	    0.90000;
	8034	 2	 0.00	 0.00	 0.0	 0.0	 80	    1.10000	   -4.11647	 20.0	 1	    1.10000	    0.90000;
];

%% generator data
%	bus	Pg	Qg	Qmax	Qmin	Vg	mBase	status	Pmax	Pmin	Pc1	Pc2	Qc1min	Qc1max	Qc2min	Qc2max	ramp_agc	ramp_10	ramp_30	ramp_q	apf
mpc.gen = [
	1032	 1487.0	 214.245	 1030.0	 -1030.0	 1.00006	 100.0	 1	 1487	 0.0	 0.0	 0.0	 0.0	 0.0	 0.0	 0.0	 0.0	 0.0	 0.0	 0.0	 0.0; % NUC
	1032	 1035.0	 55.976	 518.0	 -518.0	 1.00006	 100.0	 1	 1035	 0.0	 0.0	 0.0	 0.0	 0.0	 0.0	 0.0	 0.0	 0.0	 0.0	 0.0	 0.0; % COW
	1034	 709.0	 -259.01	 2294.0	 -2294.0	 0.99368	 100.0	 1	 709	 0.0	 0.0	 0.0	 0.0	 0.0	 0.0	 0.0	 0.0	 0.0	 0.0	 0.0	 0.0; % COW
	1034	 542.0	 -41.926	 918.0	 -918.0	 0.99368	 100.0	 1	 542	 0.0	 0.0	 0.0	 0.0	 0.0	 0.0	 0.0	 0.0	 0.0	 0.0	 0.0	 0.0; % COW
	1034	 1082.0	 -24.399	 700.0	 -700.0	 0.99368	 100.0	 1	 1082	 0.0	 0.0	 0.0	 0.0	 0.0	 0.0	 0.0	 0.0	 0.0	 0.0	 0.0	 0.0; % NUC
	1131	 1773.0	 -22.058	 887.0	 -887.0	 1.0172	 100.0	 1	 1773	 0.0	 0.0	 0.0	 0.0	 0.0	 0.0	 0.0	 0.0	 0.0	 0.0	 0.0	 0.0; % COW
	1131	 1773.0	 -102.691	 1916.0	 -1916.0	 1.0172	 100.0	 1	 1773	 0.0	 0.0	 0.0	 0.0	 0.0	 0.0	 0.0	 0.0	 0.0	 0.0	 0.0	 0.0; % COW
	1131	 1847.0	 -23.935	 924.0	 -924.0	 1.0172	 100.0	 1	 1847	 0.0	 0.0	 0.0	 0.0	 0.0	 0.0	 0.0	 0.0	 0.0	 0.0	 0.0	 0.0; % NG
	1232	 854.916	 -767.472	 1208.0	 -1208.0	 0.98078	 100.0	 1	 1453	 0.0	 0.0	 0.0	 0.0	 0.0	 0.0	 0.0	 0.0	 0.0	 0.0	 0.0	 0.0; % COW
	1232	 1143.0	 -279.106	 628.0	 -628.0	 0.98078	 100.0	 1	 1143	 0.0	 0.0	 0.0	 0.0	 0.0	 0.0	 0.0	 0.0	 0.0	 0.0	 0.0	 0.0; % NUC
	1331	 2417.0	 173.022	 1209.0	 -1209.0	 1.02979	 100.0	 1	 2417	 0.0	 0.0	 0.0	 0.0	 0.0	 0.0	 0.0	 0.0	 0.0	 0.0	 0.0	 0.0; % NUC
	1331	 2478.0	 181.532	 1239.0	 -1239.0	 1.02979	 100.0	 1	 2478	 0.0	 0.0	 0.0	 0.0	 0.0	 0.0	 0.0	 0.0	 0.0	 0.0	 0.0	 0.0; % COW
	1333	 2949.0	 328.161	 1475.0	 -1475.0	 1.06024	 100.0	 1	 2949	 0.0	 0.0	 0.0	 0.0	 0.0	 0.0	 0.0	 0.0	 0.0	 0.0	 0.0	 0.0; % COW
	1333	 2876.0	 1028.681	 2746.0	 -2746.0	 1.06024	 100.0	 1	 2876	 0.0	 0.0	 0.0	 0.0	 0.0	 0.0	 0.0	 0.0	 0.0	 0.0	 0.0	 0.0; % NUC
	1333	 0.0	 373.513	 1579.0	 -1579.0	 1.06024	 100.0	 1	 3157	 0.0	 0.0	 0.0	 0.0	 0.0	 0.0	 0.0	 0.0	 0.0	 0.0	 0.0	 0.0; % PEL
	1431	 4839.0	 758.726	 3559.0	 -3559.0	 1.02082	 100.0	 1	 4839	 0.0	 0.0	 0.0	 0.0	 0.0	 0.0	 0.0	 0.0	 0.0	 0.0	 0.0	 0.0; % COW
	1431	 4839.0	 359.397	 2420.0	 -2420.0	 1.02082	 100.0	 1	 4839	 0.0	 0.0	 0.0	 0.0	 0.0	 0.0	 0.0	 0.0	 0.0	 0.0	 0.0	 0.0; % COW
	1431	 0.0	 410.38	 2590.0	 -2590.0	 1.02082	 100.0	 1	 5179	 0.0	 0.0	 0.0	 0.0	 0.0	 0.0	 0.0	 0.0	 0.0	 0.0	 0.0	 0.0; % PEL
	2030	 1544.937	 349.775	 1070.0	 -1070.0	 1.09986	 100.0	 1	 2091	 0.0	 0.0	 0.0	 0.0	 0.0	 0.0	 0.0	 0.0	 0.0	 0.0	 0.0	 0.0; % COW
	2030	 1549.0	 192.742	 775.0	 -775.0	 1.09986	 100.0	 1	 1549	 0.0	 0.0	 0.0	 0.0	 0.0	 0.0	 0.0	 0.0	 0.0	 0.0	 0.0	 0.0; % COW
	2130	 594.0	 146.154	 297.0	 -297.0	 1.0778	 100.0	 1	 594	 0.0	 0.0	 0.0	 0.0	 0.0	 0.0	 0.0	 0.0	 0.0	 0.0	 0.0	 0.0; % NG
	2130	 776.0	 221.691	 388.0	 -388.0	 1.0778	 100.0	 1	 776	 0.0	 0.0	 0.0	 0.0	 0.0	 0.0	 0.0	 0.0	 0.0	 0.0	 0.0	 0.0; % COW
	2130	 594.0	 146.154	 297.0	 -297.0	 1.0778	 100.0	 1	 594	 0.0	 0.0	 0.0	 0.0	 0.0	 0.0	 0.0	 0.0	 0.0	 0.0	 0.0	 0.0; % NG
	2130	 551.0	 129.744	 276.0	 -276.0	 1.0778	 100.0	 1	 551	 0.0	 0.0	 0.0	 0.0	 0.0	 0.0	 0.0	 0.0	 0.0	 0.0	 0.0	 0.0; % NG
	2233	 1131.0	 167.699	 566.0	 -566.0	 1.08298	 100.0	 1	 1131	 0.0	 0.0	 0.0	 0.0	 0.0	 0.0	 0.0	 0.0	 0.0	 0.0	 0.0	 0.0; % COW
	2233	 1270.0	 206.841	 635.0	 -635.0	 1.08298	 100.0	 1	 1270	 0.0	 0.0	 0.0	 0.0	 0.0	 0.0	 0.0	 0.0	 0.0	 0.0	 0.0	 0.0; % NG
	2233	 1270.0	 206.841	 635.0	 -635.0	 1.08298	 100.0	 1	 1270	 0.0	 0.0	 0.0	 0.0	 0.0	 0.0	 0.0	 0.0	 0.0	 0.0	 0.0	 0.0; % NG
	2332	 1407.0	 -243.629	 704.0	 -704.0	 1.0376	 100.0	 1	 1407	 0.0	 0.0	 0.0	 0.0	 0.0	 0.0	 0.0	 0.0	 0.0	 0.0	 0.0	 0.0; % NUC
	2438	 934.0	 104.404	 728.0	 -467.0	 1.06796	 100.0	 1	 934	 0.0	 0.0	 0.0	 0.0	 0.0	 0.0	 0.0	 0.0	 0.0	 0.0	 0.0	 0.0; % NG
	2438	 1254.0	 196.568	 1902.0	 -1168.0	 1.06796	 100.0	 1	 1254	 0.0	 0.0	 0.0	 0.0	 0.0	 0.0	 0.0	 0.0	 0.0	 0.0	 0.0	 0.0; % NUC
	2438	 889.0	 421.054	 2301.0	 -1053.0	 1.06796	 100.0	 1	 889	 0.0	 0.0	 0.0	 0.0	 0.0	 0.0	 0.0	 0.0	 0.0	 0.0	 0.0	 0.0; % COW
	2438	 1303.0	 -27.896	 659.0	 -652.0	 1.06796	 100.0	 1	 1303	 0.0	 0.0	 0.0	 0.0	 0.0	 0.0	 0.0	 0.0	 0.0	 0.0	 0.0	 0.0; % COW
	2438	 970.0	 -17.205	 485.0	 -485.0	 1.06796	 100.0	 1	 970	 0.0	 0.0	 0.0	 0.0	 0.0	 0.0	 0.0	 0.0	 0.0	 0.0	 0.0	 0.0; % COW
	2438	 1073.0	 -18.684	 561.0	 -553.0	 1.06796	 100.0	 1	 1073	 0.0	 0.0	 0.0	 0.0	 0.0	 0.0	 0.0	 0.0	 0.0	 0.0	 0.0	 0.0; % COW
	2438	 0.0	 210.663	 1910.0	 -1150.0	 1.06796	 100.0	 1	 955	 0.0	 0.0	 0.0	 0.0	 0.0	 0.0	 0.0	 0.0	 0.0	 0.0	 0.0	 0.0; % COW
	2438	 0.0	 -0.577	 88.8	 -88.8	 1.06796	 100.0	 1	 0	 -1006.0	 0.0	 0.0	 0.0	 0.0	 0.0	 0.0	 0.0	 0.0	 0.0	 0.0	 0.0; % SYNC
	2533	 4847.0	 561.746	 2424.0	 -2424.0	 1.072	 100.0	 1	 4847	 0.0	 0.0	 0.0	 0.0	 0.0	 0.0	 0.0	 0.0	 0.0	 0.0	 0.0	 0.0; % COW
	2630	 666.823	 38.296	 1346.0	 -1346.0	 1.0213	 100.0	 1	 1120	 0.0	 0.0	 0.0	 0.0	 0.0	 0.0	 0.0	 0.0	 0.0	 0.0	 0.0	 0.0; % COW
	2631	 1791.0	 119.556	 896.0	 -896.0	 1.05319	 100.0	 1	 1791	 0.0	 0.0	 0.0	 0.0	 0.0	 0.0	 0.0	 0.0	 0.0	 0.0	 0.0	 0.0; % NG
	2634	 3939.0	 168.414	 1970.0	 -1970.0	 1.1	 100.0	 1	 3939	 0.0	 0.0	 0.0	 0.0	 0.0	 0.0	 0.0	 0.0	 0.0	 0.0	 0.0	 0.0; % COW
	2637	 4700.0	 944.657	 2350.0	 -2350.0	 1.05076	 100.0	 1	 4700	 0.0	 0.0	 0.0	 0.0	 0.0	 0.0	 0.0	 0.0	 0.0	 0.0	 0.0	 0.0; % NG
	2638	 239.0	 32.934	 120.0	 -120.0	 1.04957	 100.0	 1	 239	 -1272.0	 0.0	 0.0	 0.0	 0.0	 0.0	 0.0	 0.0	 0.0	 0.0	 0.0	 0.0; % COW
	3133	 1083.0	 273.867	 542.0	 -542.0	 1.0585	 100.0	 1	 1083	 0.0	 0.0	 0.0	 0.0	 0.0	 0.0	 0.0	 0.0	 0.0	 0.0	 0.0	 0.0; % NG
	3133	 0.0	 286.0	 557.0	 -557.0	 1.0585	 100.0	 1	 1113	 0.0	 0.0	 0.0	 0.0	 0.0	 0.0	 0.0	 0.0	 0.0	 0.0	 0.0	 0.0; % PEL
	3135	 751.427	 128.812	 381.0	 -381.0	 1.09333	 100.0	 1	 761	 0.0	 0.0	 0.0	 0.0	 0.0	 0.0	 0.0	 0.0	 0.0	 0.0	 0.0	 0.0; % COW
	3135	 0.0	 30.125	 176.0	 -176.0	 1.09333	 100.0	 1	 351	 0.0	 0.0	 0.0	 0.0	 0.0	 0.0	 0.0	 0.0	 0.0	 0.0	 0.0	 0.0; % NG