%%%%%%%%%%%%%%%%%%%%%%%%%%%%%%%%%%%%%%%%%%%%%%%%%%%%%%%%%%%%%%%%%%%%%%%%%%%
%%%%                                                                  %%%%%
%%%%    IEEE PES Power Grid Library - Optimal Power Flow - v17.07     %%%%%
%%%%          (https://github.com/power-grid-lib/pglib-opf)           %%%%%
%%%%             Benchmark Group - Active Power Increase              %%%%%
%%%%                         27 - June - 2017                         %%%%%
%%%%                                                                  %%%%%
%%%%%%%%%%%%%%%%%%%%%%%%%%%%%%%%%%%%%%%%%%%%%%%%%%%%%%%%%%%%%%%%%%%%%%%%%%%
function mpc = pglib_opf_case200_pserc__api
mpc.version = '2';
mpc.baseMVA = 100.0;

%% bus data
%	bus_i	type	Pd	Qd	Gs	Bs	area	Vm	Va	baseKV	zone	Vmax	Vmin
mpc.bus = [
	1	 1	 0.00	 0.00	 0.0	 0.0	 1	    1.05539	    3.36547	 115.0	 1	    1.10000	    0.90000;
	2	 1	 12.07	 3.12	 0.0	 0.0	 1	    1.05522	    3.34581	 115.0	 1	    1.10000	    0.90000;
	3	 1	 0.00	 0.00	 0.0	 0.0	 1	    1.06816	   -4.48016	 115.0	 1	    1.10000	    0.90000;
	4	 1	 3.00	 0.77	 0.0	 0.0	 1	    1.06812	   -4.48491	 115.0	 1	    1.10000	    0.90000;
	5	 1	 0.00	 0.00	 0.0	 0.0	 1	    1.08221	    5.74714	 115.0	 1	    1.10000	    0.90000;
	6	 1	 13.78	 3.56	 0.0	 0.0	 1	    1.08201	    5.72585	 115.0	 1	    1.10000	    0.90000;
	7	 1	 0.00	 0.00	 0.0	 0.0	 1	    1.04646	    2.18094	 115.0	 1	    1.10000	    0.90000;
	8	 1	 38.81	 10.03	 0.0	 0.0	 1	    1.04591	    2.11948	 115.0	 1	    1.10000	    0.90000;
	9	 1	 0.00	 0.00	 0.0	 0.0	 1	    1.05063	    2.86295	 115.0	 1	    1.10000	    0.90000;
	10	 1	 69.77	 18.04	 0.0	 0.0	 1	    1.04955	    2.72462	 115.0	 1	    1.10000	    0.90000;
	11	 1	 0.00	 0.00	 0.0	 0.0	 1	    1.09417	   -2.93042	 115.0	 1	    1.10000	    0.90000;
	12	 1	 0.54	 0.14	 0.0	 0.0	 1	    1.09416	   -2.93130	 115.0	 1	    1.10000	    0.90000;
	13	 1	 4.45	 1.15	 0.0	 0.0	 1	    1.09410	   -2.93776	 115.0	 1	    1.10000	    0.90000;
	14	 1	 0.00	 0.00	 0.0	 0.0	 1	    1.09192	   -2.68613	 230.0	 1	    1.10000	    0.90000;
	15	 1	 0.00	 0.00	 0.0	 30.0	 1	    1.09462	   -3.50482	 115.0	 1	    1.10000	    0.90000;
	16	 1	 79.04	 20.44	 0.0	 0.0	 1	    1.09362	   -3.62047	 115.0	 1	    1.10000	    0.90000;
	17	 1	 0.00	 0.00	 0.0	 0.0	 1	    1.04987	   -1.58741	 115.0	 1	    1.10000	    0.90000;
	18	 1	 1.26	 0.33	 0.0	 0.0	 1	    1.04985	   -1.58989	 115.0	 1	    1.10000	    0.90000;
	19	 1	 1.36	 0.35	 0.0	 0.0	 1	    1.04985	   -1.58949	 115.0	 1	    1.10000	    0.90000;
	20	 1	 2.00	 0.52	 0.0	 0.0	 1	    1.04984	   -1.59071	 115.0	 1	    1.10000	    0.90000;
	21	 1	 8.14	 2.10	 0.0	 0.0	 1	    1.04974	   -1.60341	 115.0	 1	    1.10000	    0.90000;
	22	 1	 0.00	 0.00	 0.0	 0.0	 1	    1.09396	   -2.58290	 115.0	 1	    1.10000	    0.90000;
	23	 1	 2.49	 0.64	 0.0	 0.0	 1	    1.09392	   -2.58655	 115.0	 1	    1.10000	    0.90000;
	24	 1	 4.23	 1.09	 0.0	 0.0	 1	    1.09390	   -2.58875	 115.0	 1	    1.10000	    0.90000;
	25	 1	 0.00	 0.00	 0.0	 0.0	 1	    1.08135	    3.35988	 115.0	 1	    1.10000	    0.90000;
	26	 1	 2.35	 0.61	 0.0	 0.0	 1	    1.08132	    3.35653	 115.0	 1	    1.10000	    0.90000;
	27	 1	 0.00	 0.00	 0.0	 0.0	 1	    1.09454	   -2.67203	 115.0	 1	    1.10000	    0.90000;
	28	 1	 4.12	 1.07	 0.0	 0.0	 1	    1.09448	   -2.67954	 115.0	 1	    1.10000	    0.90000;
	29	 1	 0.00	 0.00	 0.0	 0.0	 1	    1.05534	    3.68728	 115.0	 1	    1.10000	    0.90000;
	30	 1	 96.59	 24.97	 0.0	 0.0	 1	    1.05395	    3.54042	 115.0	 1	    1.10000	    0.90000;
	31	 1	 0.00	 0.00	 0.0	 0.0	 1	    1.05091	   -0.81662	 115.0	 1	    1.10000	    0.90000;
	32	 1	 0.77	 0.20	 0.0	 0.0	 1	    1.05090	   -0.81810	 115.0	 1	    1.10000	    0.90000;
	33	 1	 9.72	 2.51	 0.0	 0.0	 1	    1.05078	   -0.83428	 115.0	 1	    1.10000	    0.90000;
	34	 1	 0.00	 0.00	 0.0	 0.0	 1	    1.07686	   -3.51651	 115.0	 1	    1.10000	    0.90000;
	35	 1	 36.67	 9.48	 0.0	 0.0	 1	    1.07634	   -3.58042	 115.0	 1	    1.10000	    0.90000;
	36	 1	 0.00	 0.00	 0.0	 0.0	 1	    1.05187	   -0.39875	 115.0	 1	    1.10000	    0.90000;
	37	 1	 5.39	 1.39	 0.0	 0.0	 1	    1.05180	   -0.40765	 115.0	 1	    1.10000	    0.90000;
	38	 1	 44.99	 11.63	 0.0	 0.0	 1	    1.05120	   -0.47657	 115.0	 1	    1.10000	    0.90000;
	39	 1	 13.07	 3.38	 0.0	 0.0	 1	    1.05291	   -5.05962	 115.0	 1	    1.10000	    0.90000;
	40	 1	 3.62	 0.93	 0.0	 0.0	 1	    1.05286	   -5.06519	 115.0	 1	    1.10000	    0.90000;
	41	 1	 68.21	 17.63	 0.0	 0.0	 1	    1.07543	   -4.81068	 115.0	 1	    1.10000	    0.90000;
	42	 1	 18.75	 4.85	 0.0	 0.0	 1	    1.06330	   -5.29278	 115.0	 1	    1.10000	    0.90000;
	43	 1	 3.41	 0.88	 0.0	 0.0	 1	    1.05164	   -0.03570	 115.0	 1	    1.10000	    0.90000;
	44	 1	 7.33	 1.89	 0.0	 0.0	 1	    1.05876	   -3.81406	 115.0	 1	    1.10000	    0.90000;
	45	 1	 0.00	 0.00	 0.0	 0.0	 1	    1.08730	    1.35500	 230.0	 1	    1.10000	    0.90000;
	46	 1	 9.57	 2.47	 0.0	 0.0	 1	    1.08481	    0.24271	 115.0	 1	    1.10000	    0.90000;
	47	 1	 2.72	 0.71	 0.0	 0.0	 1	    1.09098	   -1.81534	 115.0	 1	    1.10000	    0.90000;
	48	 1	 3.16	 0.82	 0.0	 0.0	 1	    1.08014	    5.69748	 115.0	 1	    1.10000	    0.90000;
	49	 2	 0.00	 0.00	 0.0	 0.0	 1	    1.10000	    5.81864	 13.8	 1	    1.10000	    0.90000;
	50	 2	 0.00	 0.00	 0.0	 0.0	 1	    1.09342	   11.25679	 13.8	 1	    1.10000	    0.90000;
	51	 2	 0.00	 0.00	 0.0	 0.0	 1	    1.10000	   10.97630	 13.8	 1	    1.10000	    0.90000;
	52	 2	 0.00	 0.00	 0.0	 0.0	 1	    1.08380	   10.21145	 13.8	 1	    1.10000	    0.90000;
	53	 2	 0.00	 0.00	 0.0	 0.0	 1	    1.10000	   10.63685	 13.8	 1	    1.10000	    0.90000;
	54	 1	 4.71	 1.22	 0.0	 0.0	 1	    1.08716	   -2.26211	 115.0	 1	    1.10000	    0.90000;
	55	 1	 0.00	 0.00	 0.0	 0.0	 1	    1.08449	    2.02320	 230.0	 1	    1.10000	    0.90000;
	56	 1	 1.97	 0.51	 0.0	 0.0	 1	    1.08325	    1.48780	 115.0	 1	    1.10000	    0.90000;
	57	 1	 4.98	 1.29	 0.0	 0.0	 1	    1.06242	   -5.04622	 115.0	 1	    1.10000	    0.90000;
	58	 1	 6.38	 1.65	 0.0	 0.0	 1	    1.06204	   -1.08671	 115.0	 1	    1.10000	    0.90000;
	59	 1	 7.74	 2.00	 0.0	 0.0	 1	    1.04975	    0.01035	 115.0	 1	    1.10000	    0.90000;
	60	 1	 6.21	 1.60	 0.0	 0.0	 1	    1.06698	    3.63077	 115.0	 1	    1.10000	    0.90000;
	61	 1	 31.02	 8.02	 0.0	 0.0	 1	    1.08121	    0.48872	 115.0	 1	    1.10000	    0.90000;
	62	 1	 37.80	 9.77	 0.0	 0.0	 1	    1.05825	   -6.19490	 115.0	 1	    1.10000	    0.90000;
	63	 1	 14.10	 3.64	 0.0	 0.0	 1	    1.08892	   -2.98237	 115.0	 1	    1.10000	    0.90000;
	64	 1	 0.00	 0.00	 0.0	 0.0	 1	    1.08719	    6.16758	 115.0	 1	    1.10000	    0.90000;
	65	 2	 0.00	 0.00	 0.0	 0.0	 1	    1.10000	   12.25016	 13.8	 1	    1.10000	    0.90000;
	66	 1	 0.00	 0.00	 0.0	 0.0	 1	    1.09516	   -1.29286	 115.0	 1	    1.10000	    0.90000;
	67	 2	 0.00	 0.00	 0.0	 0.0	 1	    1.09868	   -1.26990	 13.8	 1	    1.10000	    0.90000;
	68	 2	 0.00	 0.00	 0.0	 0.0	 1	    1.09516	    7.96162	 13.8	 1	    1.10000	    0.90000;
	69	 2	 0.00	 0.00	 0.0	 0.0	 1	    1.10000	   -1.11492	 13.8	 1	    1.10000	    0.90000;
	70	 2	 0.00	 0.00	 0.0	 0.0	 1	    1.10000	   -0.90371	 13.8	 1	    1.10000	    0.90000;
	71	 2	 0.00	 0.00	 0.0	 0.0	 1	    1.10000	   -1.14102	 13.8	 1	    1.10000	    0.90000;
	72	 2	 0.00	 0.00	 0.0	 0.0	 1	    1.10000	    0.40109	 13.8	 1	    1.10000	    0.90000;
	73	 2	 0.00	 0.00	 0.0	 0.0	 1	    1.10000	    1.27579	 13.8	 1	    1.10000	    0.90000;
	74	 1	 32.53	 8.41	 0.0	 0.0	 1	    1.06827	    3.34840	 115.0	 1	    1.10000	    0.90000;
	75	 1	 5.89	 1.52	 0.0	 0.0	 1	    1.06906	    6.37515	 115.0	 1	    1.10000	    0.90000;
	76	 2	 0.00	 0.00	 0.0	 0.0	 1	    1.06906	   15.95267	 13.8	 1	    1.10000	    0.90000;
	77	 2	 0.00	 0.00	 0.0	 0.0	 1	    1.10000	    6.69951	 13.8	 1	    1.10000	    0.90000;
	78	 2	 0.00	 0.00	 0.0	 0.0	 1	    1.06906	    6.37515	 13.8	 1	    1.10000	    0.90000;
	79	 2	 0.00	 0.00	 0.0	 0.0	 1	    1.06906	    6.37515	 13.8	 1	    1.10000	    0.90000;
	80	 1	 2.62	 0.68	 0.0	 0.0	 1	    1.07930	   -5.12881	 115.0	 1	    1.10000	    0.90000;
	81	 1	 0.00	 0.00	 0.0	 0.0	 1	    1.08103	    0.21401	 230.0	 1	    1.10000	    0.90000;
	82	 1	 13.19	 3.41	 0.0	 0.0	 1	    1.07418	    0.05546	 115.0	 1	    1.10000	    0.90000;
	83	 1	 4.73	 1.22	 0.0	 0.0	 1	    1.05572	    1.90663	 115.0	 1	    1.10000	    0.90000;
	84	 1	 6.13	 1.59	 0.0	 0.0	 1	    1.05475	   -0.30062	 115.0	 1	    1.10000	    0.90000;
	85	 1	 8.53	 2.21	 0.0	 0.0	 1	    1.05045	   -4.11706	 115.0	 1	    1.10000	    0.90000;
	86	 1	 13.48	 3.49	 0.0	 0.0	 1	    1.04834	    2.50293	 115.0	 1	    1.10000	    0.90000;
	87	 1	 0.00	 0.00	 0.0	 0.0	 1	    1.07938	   -3.70438	 230.0	 1	    1.10000	    0.90000;
	88	 1	 87.82	 22.70	 0.0	 0.0	 1	    1.07400	   -5.42601	 115.0	 1	    1.10000	    0.90000;
	89	 1	 94.85	 24.52	 0.0	 0.0	 1	    1.07163	   -2.99801	 115.0	 1	    1.10000	    0.90000;
	90	 2	 0.00	 0.00	 0.0	 0.0	 1	    1.10000	   -2.50576	 13.8	 1	    1.10000	    0.90000;
	91	 2	 0.00	 0.00	 0.0	 0.0	 1	    1.07351	    5.03381	 13.8	 1	    1.10000	    0.90000;
	92	 2	 0.00	 0.00	 0.0	 0.0	 1	    1.07163	   -2.99801	 13.8	 1	    1.10000	    0.90000;
	93	 1	 5.41	 1.40	 0.0	 0.0	 1	    1.09299	   -3.12944	 115.0	 1	    1.10000	    0.90000;
	94	 2	 0.00	 0.00	 0.0	 0.0	 1	    1.09844	   -2.77827	 13.8	 1	    1.10000	    0.90000;
	95	 1	 4.53	 1.17	 0.0	 30.0	 1	    1.07646	   -2.25145	 115.0	 1	    1.10000	    0.90000;
	96	 1	 4.46	 1.15	 0.0	 0.0	 1	    1.08070	   -2.64575	 115.0	 1	    1.10000	    0.90000;
	97	 1	 11.98	 3.10	 0.0	 0.0	 1	    1.05920	    0.84305	 115.0	 1	    1.10000	    0.90000;
	98	 1	 0.00	 0.00	 0.0	 0.0	 1	    1.06722	    6.18352	 230.0	 1	    1.10000	    0.90000;
	99	 1	 19.89	 5.14	 0.0	 0.0	 1	    1.06059	    4.70646	 115.0	 1	    1.10000	    0.90000;
	100	 1	 66.53	 17.20	 0.0	 80.0	 1	    1.08667	   -4.99764	 115.0	 1	    1.10000	    0.90000;
	101	 1	 0.85	 0.22	 0.0	 0.0	 1	    1.04989	    2.56598	 115.0	 1	    1.10000	    0.90000;
	102	 1	 0.00	 0.00	 0.0	 0.0	 1	    1.08619	    2.47722	 230.0	 1	    1.10000	    0.90000;
	103	 1	 0.00	 0.00	 0.0	 0.0	 1	    1.08285	    1.38873	 115.0	 1	    1.10000	    0.90000;
	104	 2	 0.00	 0.00	 0.0	 0.0	 1	    1.10000	    3.08495	 13.8	 1	    1.10000	    0.90000;
	105	 2	 0.00	 0.00	 0.0	 0.0	 1	    1.10000	    9.54448	 13.8	 1	    1.10000	    0.90000;
	106	 1	 3.11	 0.80	 0.0	 0.0	 1	    1.07823	    1.21291	 115.0	 1	    1.10000	    0.90000;
	107	 1	 79.33	 20.51	 0.0	 0.0	 1	    1.05098	   -1.43769	 115.0	 1	    1.10000	    0.90000;
	108	 1	 15.40	 3.98	 0.0	 0.0	 1	    1.06438	    5.32854	 115.0	 1	    1.10000	    0.90000;
	109	 1	 9.11	 2.35	 0.0	 0.0	 1	    1.05310	    0.32429	 115.0	 1	    1.10000	    0.90000;
	110	 1	 17.75	 4.59	 0.0	 0.0	 1	    1.04999	    2.62965	 115.0	 1	    1.10000	    0.90000;
	111	 1	 15.69	 4.05	 0.0	 0.0	 1	    1.07094	   -5.11774	 115.0	 1	    1.10000	    0.90000;
	112	 1	 0.00	 0.00	 0.0	 0.0	 1	    1.08057	    2.57508	 230.0	 1	    1.10000	    0.90000;
	113	 1	 0.00	 0.00	 0.0	 0.0	 1	    1.05819	   -0.39316	 115.0	 1	    1.10000	    0.90000;
	114	 2	 0.00	 0.00	 0.0	 0.0	 1	    1.09051	    6.78476	 13.8	 1	    1.10000	    0.90000;
	115	 2	 0.00	 0.00	 0.0	 0.0	 1	    1.10000	    6.91379	 13.8	 1	    1.10000	    0.90000;
	116	 1	 0.00	 0.00	 0.0	 0.0	 1	    1.06674	    5.60402	 230.0	 1	    1.10000	    0.90000;
	117	 1	 55.72	 14.40	 0.0	 0.0	 1	    1.05629	    2.90409	 115.0	 1	    1.10000	    0.90000;
	118	 1	 6.44	 1.66	 0.0	 0.0	 1	    1.05950	    4.00504	 115.0	 1	    1.10000	    0.90000;
	119	 1	 28.70	 7.42	 0.0	 0.0	 1	    1.04714	    0.62432	 115.0	 1	    1.10000	    0.90000;
	120	 1	 3.17	 0.82	 0.0	 0.0	 1	    1.05002	   -3.11234	 115.0	 1	    1.10000	    0.90000;
	121	 1	 0.00	 0.00	 0.0	 0.0	 1	    1.09260	   -0.77608	 230.0	 1	    1.10000	    0.90000;
	122	 1	 23.31	 6.02	 0.0	 0.0	 1	    1.08479	   -1.25708	 115.0	 1	    1.10000	    0.90000;
	123	 1	 0.00	 0.00	 0.0	 0.0	 1	    1.07781	    7.74622	 230.0	 1	    1.10000	    0.90000;
	124	 1	 0.00	 0.00	 0.0	 0.0	 1	    1.06468	    4.95766	 115.0	 1	    1.10000	    0.90000;
	125	 2	 0.00	 0.00	 0.0	 0.0	 1	    1.10000	   15.74701	 13.8	 1	    1.10000	    0.90000;
	126	 2	 0.00	 0.00	 0.0	 0.0	 1	    1.07781	   13.28726	 13.8	 1	    1.10000	    0.90000;
	127	 2	 0.00	 0.00	 0.0	 0.0	 1	    1.09770	    9.75538	 13.8	 1	    1.10000	    0.90000;
	128	 1	 0.00	 0.00	 0.0	 0.0	 1	    1.07966	    2.46204	 230.0	 1	    1.10000	    0.90000;
	129	 1	 116.59	 30.14	 0.0	 0.0	 1	    1.05774	   -0.86969	 115.0	 1	    1.10000	    0.90000;
	130	 1	 6.64	 1.72	 0.0	 0.0	 1	    1.07425	    1.13078	 115.0	 1	    1.10000	    0.90000;
	131	 1	 49.46	 12.79	 0.0	 0.0	 1	    1.05062	    2.86507	 115.0	 1	    1.10000	    0.90000;
	132	 1	 44.08	 11.39	 0.0	 0.0	 1	    1.04726	    0.49279	 115.0	 1	    1.10000	    0.90000;
	133	 1	 0.00	 0.00	 0.0	 0.0	 1	    1.08089	    7.65045	 230.0	 1	    1.10000	    0.90000;
	134	 1	 0.00	 0.00	 0.0	 0.0	 1	    1.07520	    5.99865	 115.0	 1	    1.10000	    0.90000;
	135	 2	 0.00	 0.00	 0.0	 0.0	 1	    1.10000	   11.90341	 13.8	 1	    1.10000	    0.90000;
	136	 2	 0.00	 0.00	 0.0	 0.0	 1	    1.10000	   11.43661	 13.8	 1	    1.10000	    0.90000;
	137	 1	 2.05	 0.53	 0.0	 0.0	 1	    1.07213	   -4.05647	 115.0	 1	    1.10000	    0.90000;
	138	 1	 3.63	 0.94	 0.0	 0.0	 1	    1.06708	   -0.02802	 115.0	 1	    1.10000	    0.90000;
	139	 1	 11.18	 2.89	 0.0	 0.0	 1	    1.05312	   -0.26854	 115.0	 1	    1.10000	    0.90000;
	140	 1	 13.43	 3.47	 0.0	 0.0	 1	    1.06250	    4.49820	 115.0	 1	    1.10000	    0.90000;
	141	 1	 2.33	 0.60	 0.0	 0.0	 1	    1.04989	    2.65723	 115.0	 1	    1.10000	    0.90000;
	142	 1	 60.92	 15.75	 0.0	 0.0	 1	    1.04821	    2.68645	 115.0	 1	    1.10000	    0.90000;
	143	 1	 47.65	 12.32	 0.0	 0.0	 1	    1.06993	   -5.04858	 115.0	 1	    1.10000	    0.90000;
	144	 1	 14.81	 3.83	 0.0	 0.0	 1	    1.06218	    1.38263	 115.0	 1	    1.10000	    0.90000;
	145	 1	 31.22	 8.07	 0.0	 0.0	 1	    1.06563	   -6.58504	 115.0	 1	    1.10000	    0.90000;
	146	 1	 0.00	 0.00	 0.0	 0.0	 1	    1.05683	    3.01596	 115.0	 1	    1.10000	    0.90000;
	147	 2	 0.00	 0.00	 0.0	 0.0	 1	    1.05729	    9.83847	 13.8	 1	    1.10000	    0.90000;
	148	 1	 52.35	 13.53	 0.0	 0.0	 1	    1.04201	    1.59950	 115.0	 1	    1.10000	    0.90000;
	149	 1	 0.00	 0.00	 0.0	 0.0	 1	    1.08256	   -3.13555	 230.0	 1	    1.10000	    0.90000;
	150	 1	 0.00	 0.00	 0.0	 0.0	 1	    1.07913	   -4.68079	 115.0	 1	    1.10000	    0.90000;
	151	 2	 0.00	 0.00	 0.0	 0.0	 1	    1.08257	    2.98762	 13.8	 1	    1.10000	    0.90000;
	152	 2	 0.00	 0.00	 0.0	 0.0	 1	    1.10000	   -2.36182	 13.8	 1	    1.10000	    0.90000;
	153	 2	 0.00	 0.00	 0.0	 0.0	 1	    1.08256	    5.90304	 13.8	 1	    1.10000	    0.90000;
	154	 2	 0.00	 0.00	 0.0	 0.0	 1	    1.10000	   -2.58380	 13.8	 1	    1.10000	    0.90000;
	155	 2	 0.00	 0.00	 0.0	 0.0	 1	    1.08256	    1.74838	 13.8	 1	    1.10000	    0.90000;
	156	 1	 0.00	 0.00	 0.0	 0.0	 1	    1.07833	    7.62578	 230.0	 1	    1.10000	    0.90000;
	157	 1	 24.12	 6.24	 0.0	 0.0	 1	    1.07394	    6.83150	 115.0	 1	    1.10000	    0.90000;
	158	 1	 15.83	 4.09	 0.0	 0.0	 1	    1.09406	   -2.19897	 115.0	 1	    1.10000	    0.90000;
	159	 1	 2.45	 0.63	 0.0	 0.0	 1	    1.05788	   -5.42208	 115.0	 1	    1.10000	    0.90000;
	160	 1	 0.00	 0.00	 0.0	 0.0	 1	    1.06582	   -5.89904	 115.0	 1	    1.10000	    0.90000;
	161	 2	 0.00	 0.00	 0.0	 0.0	 1	    1.06582	   -5.89904	 13.8	 1	    1.10000	    0.90000;
	162	 1	 2.37	 0.61	 0.0	 0.0	 1	    1.06036	    1.81958	 115.0	 1	    1.10000	    0.90000;
	163	 1	 81.50	 21.07	 0.0	 0.0	 1	    1.07271	   -4.68810	 115.0	 1	    1.10000	    0.90000;
	164	 2	 0.00	 0.00	 0.0	 0.0	 1	    1.07271	   -4.68810	 13.8	 1	    1.10000	    0.90000;
	165	 2	 0.00	 0.00	 0.0	 0.0	 1	    1.07271	   -4.68810	 13.8	 1	    1.10000	    0.90000;
	166	 2	 0.00	 0.00	 0.0	 0.0	 1	    1.07271	   -4.68810	 13.8	 1	    1.10000	    0.90000;
	167	 2	 0.00	 0.00	 0.0	 0.0	 1	    1.07487	   -0.58610	 13.8	 1	    1.10000	    0.90000;
	168	 2	 0.00	 0.00	 0.0	 0.0	 1	    1.07271	   -4.68810	 13.8	 1	    1.10000	    0.90000;
	169	 2	 0.00	 0.00	 0.0	 0.0	 1	    1.07271	   -4.68810	 13.8	 1	    1.10000	    0.90000;
	170	 2	 0.00	 0.00	 0.0	 0.0	 1	    1.07273	    1.96721	 13.8	 1	    1.10000	    0.90000;
	171	 1	 13.77	 3.56	 0.0	 0.0	 1	    1.06524	    0.71470	 115.0	 1	    1.10000	    0.90000;
	172	 1	 9.57	 2.47	 0.0	 0.0	 1	    1.07514	   -1.94657	 115.0	 1	    1.10000	    0.90000;
	173	 1	 15.50	 4.01	 0.0	 0.0	 1	    1.07333	   -5.32332	 115.0	 1	    1.10000	    0.90000;
	174	 1	 4.93	 1.27	 0.0	 0.0	 1	    1.08190	   -4.45355	 115.0	 1	    1.10000	    0.90000;
	175	 1	 13.01	 3.36	 0.0	 0.0	 1	    1.07106	   -5.39535	 115.0	 1	    1.10000	    0.90000;
	176	 1	 33.83	 8.75	 0.0	 0.0	 1	    1.06930	   -6.05081	 115.0	 1	    1.10000	    0.90000;
	177	 1	 17.03	 4.40	 0.0	 0.0	 1	    1.05403	    0.13092	 115.0	 1	    1.10000	    0.90000;
	178	 1	 0.00	 0.00	 0.0	 0.0	 1	    1.08222	   -1.81632	 230.0	 1	    1.10000	    0.90000;
	179	 1	 42.00	 10.86	 0.0	 0.0	 1	    1.07978	   -3.96244	 115.0	 1	    1.10000	    0.90000;
	180	 1	 13.78	 3.56	 0.0	 0.0	 1	    1.07591	   -2.79492	 115.0	 1	    1.10000	    0.90000;
	181	 1	 84.74	 21.91	 0.0	 0.0	 1	    1.06981	   -5.73632	 115.0	 1	    1.10000	    0.90000;
	182	 2	 0.00	 0.00	 0.0	 0.0	 1	    1.10000	   -5.41498	 13.8	 1	    1.10000	    0.90000;
	183	 2	 0.00	 0.00	 0.0	 0.0	 1	    1.08729	   -2.22505	 13.8	 1	    1.10000	    0.90000;
	184	 1	 19.03	 4.92	 0.0	 0.0	 1	    1.08475	   -4.57843	 115.0	 1	    1.10000	    0.90000;
	185	 1	 19.20	 4.96	 0.0	 0.0	 1	    1.06914	   -6.10808	 115.0	 1	    1.10000	    0.90000;
	186	 1	 3.44	 0.89	 0.0	 0.0	 1	    1.05857	    2.26637	 115.0	 1	    1.10000	    0.90000;
	187	 1	 0.00	 0.00	 0.0	 0.0	 1	    1.09427	   -0.30650	 230.0	 1	    1.10000	    0.90000;
	188	 1	 0.00	 0.00	 0.0	 0.0	 1	    1.08439	   -2.17686	 115.0	 1	    1.10000	    0.90000;
	189	 3	 0.00	 0.00	 0.0	 0.0	 1	    1.10000	    0.00000	 13.8	 1	    1.10000	    0.90000;
	190	 1	 29.12	 7.53	 0.0	 0.0	 1	    1.06335	    1.64644	 115.0	 1	    1.10000	    0.90000;
	191	 1	 12.87	 3.32	 0.0	 0.0	 1	    1.08410	   -3.48565	 115.0	 1	    1.10000	    0.90000;
	192	 1	 79.61	 20.58	 0.0	 0.0	 1	    1.04980	   -1.42010	 115.0	 1	    1.10000	    0.90000;
	193	 1	 35.95	 9.29	 0.0	 0.0	 1	    1.05165	    2.93867	 115.0	 1	    1.10000	    0.90000;
	194	 1	 66.88	 17.29	 0.0	 50.0	 1	    1.07729	   -5.53084	 115.0	 1	    1.10000	    0.90000;
	195	 1	 0.00	 0.00	 0.0	 0.0	 1	    1.07094	    0.15052	 115.0	 1	    1.10000	    0.90000;
	196	 2	 0.00	 0.00	 0.0	 0.0	 1	    1.07094	    0.15052	 13.8	 1	    1.10000	    0.90000;
	197	 2	 0.00	 0.00	 0.0	 0.0	 1	    1.07094	    0.15052	 13.8	 1	    1.10000	    0.90000;
	198	 1	 8.79	 2.27	 0.0	 0.0	 1	    1.06026	    4.18088	 115.0	 1	    1.10000	    0.90000;
	199	 1	 7.38	 1.91	 0.0	 0.0	 1	    1.07686	    0.02675	 115.0	 1	    1.10000	    0.90000;
	200	 1	 16.50	 4.27	 0.0	 0.0	 1	    1.05579	   -1.66814	 115.0	 1	    1.10000	    0.90000;
];

%% generator data
%	bus	Pg	Qg	Qmax	Qmin	Vg	mBase	status	Pmax	Pmin	Pc1	Pc2	Qc1min	Qc1max	Qc2min	Qc2max	ramp_agc	ramp_10	ramp_30	ramp_q	apf
mpc.gen = [
	49	 0.68	 4.071	 7.0	 -7.0	 1.1	 5.44	 1	 14	 0.68	 0.0	 0.0	 0.0	 0.0	 0.0	 0.0	 0.0	 0.0	 0.0	 0.0	 0.0; % PEL
	50	 28.494	 3.435	 23.0	 -23.0	 1.09342	 5.44	 1	 45	 0.68	 0.0	 0.0	 0.0	 0.0	 0.0	 0.0	 0.0	 0.0	 0.0	 0.0	 0.0; % NG
	51	 18.0	 3.589	 9.0	 -9.0	 1.1	 5.44	 1	 18	 0.68	 0.0	 0.0	 0.0	 0.0	 0.0	 0.0	 0.0	 0.0	 0.0	 0.0	 0.0; % NG
	52	 24.292	 0.611	 14.0	 -14.0	 1.0838	 5.44	 1	 28	 0.68	 0.0	 0.0	 0.0	 0.0	 0.0	 0.0	 0.0	 0.0	 0.0	 0.0	 0.0; % NG
	53	 17.887	 3.895	 37.0	 -37.0	 1.1	 10.88	 1	 74	 1.36	 0.0	 0.0	 0.0	 0.0	 0.0	 0.0	 0.0	 0.0	 0.0	 0.0	 0.0; % NG
	65	 125.0	 18.932	 63.0	 -63.0	 1.1	 180.48	 1	 125	 22.56	 0.0	 0.0	 0.0	 0.0	 0.0	 0.0	 0.0	 0.0	 0.0	 0.0	 0.0; % NG
	67	 0.705	 2.57	 9.0	 -9.0	 1.09868	 5.64	 1	 17	 0.705	 0.0	 0.0	 0.0	 0.0	 0.0	 0.0	 0.0	 0.0	 0.0	 0.0	 0.0; % PEL
	68	 72.891	 3.996	 59.0	 -59.0	 1.09516	 33.5	 1	 117	 4.19	 0.0	 0.0	 0.0	 0.0	 0.0	 0.0	 0.0	 0.0	 0.0	 0.0	 0.0; % NG
	69	 4.19	 5.418	 44.0	 -44.0	 1.1	 33.5	 1	 87	 4.19	 0.0	 0.0	 0.0	 0.0	 0.0	 0.0	 0.0	 0.0	 0.0	 0.0	 0.0; % PEL
	70	 4.19	 2.539	 20.0	 -20.0	 1.1	 33.5	 1	 40	 4.19	 0.0	 0.0	 0.0	 0.0	 0.0	 0.0	 0.0	 0.0	 0.0	 0.0	 0.0; % PEL
	71	 4.19	 6.355	 45.0	 -45.0	 1.1	 33.5	 1	 90	 4.19	 0.0	 0.0	 0.0	 0.0	 0.0	 0.0	 0.0	 0.0	 0.0	 0.0	 0.0; % PEL
	72	 48.0	 5.575	 24.0	 -24.0	 1.1	 33.5	 1	 48	 4.19	 0.0	 0.0	 0.0	 0.0	 0.0	 0.0	 0.0	 0.0	 0.0	 0.0	 0.0; % NG
	73	 37.0	 2.723	 19.0	 -19.0	 1.1	 33.5	 1	 37	 4.19	 0.0	 0.0	 0.0	 0.0	 0.0	 0.0	 0.0	 0.0	 0.0	 0.0	 0.0; % NG
	76	 24.285	 0.84	 24.0	 -24.0	 1.06906	 4.8	 1	 47	 0.6	 0.0	 0.0	 0.0	 0.0	 0.0	 0.0	 0.0	 0.0	 0.0	 0.0	 0.0; % NG
	77	 0.36	 1.54	 2.0	 -2.0	 1.1	 2.88	 1	 4	 0.36	 0.0	 0.0	 0.0	 0.0	 0.0	 0.0	 0.0	 0.0	 0.0	 0.0	 0.0; % PEL
	78	 2988.47	 134.905	 1621.0	 -1621.0	 1.06906	 21.6	 0	 3241	 2.7	 0.0	 0.0	 0.0	 0.0	 0.0	 0.0	 0.0	 0.0	 0.0	 0.0	 0.0; % COW
	79	 4113.0	 45.108	 2388.0	 -2388.0	 1.06906	 21.6	 0	 4775	 2.7	 0.0	 0.0	 0.0	 0.0	 0.0	 0.0	 0.0	 0.0	 0.0	 0.0	 0.0; % PEL
	90	 0.48	 1.358	 5.0	 -5.0	 1.1	 3.84	 1	 9	 0.48	 0.0	 0.0	 0.0	 0.0	 0.0	 0.0	 0.0	 0.0	 0.0	 0.0	 0.0; % PEL
	91	 31.982	 1.08	 19.0	 -19.0	 1.07351	 6.0	 1	 37	 0.75	 0.0	 0.0	 0.0	 0.0	 0.0	 0.0	 0.0	 0.0	 0.0	 0.0	 0.0; % NG
	92	 699.0	 58.724	 406.0	 -406.0	 1.07163	 7.56	 0	 811	 0.945	 0.0	 0.0	 0.0	 0.0	 0.0	 0.0	 0.0	 0.0	 0.0	 0.0	 0.0; % PEL
	94	 2.7	 2.04	 61.0	 -61.0	 1.09844	 21.6	 1	 122	 2.7	 0.0	 0.0	 0.0	 0.0	 0.0	 0.0	 0.0	 0.0	 0.0	 0.0	 0.0; % PEL
	104	 14.85	 17.038	 77.0	 -77.0	 1.1	 118.8	 1	 154	 14.85	 0.0	 0.0	 0.0	 0.0	 0.0	 0.0	 0.0	 0.0	 0.0	 0.0	 0.0; % PEL
	105	 248.0	 36.802	 124.0	 -124.0	 1.1	 237.6	 1	 248	 29.7	 0.0	 0.0	 0.0	 0.0	 0.0	 0.0	 0.0	 0.0	 0.0	 0.0	 0.0; % NG
	114	 19.995	 0.465	 11.0	 -11.0	 1.09051	 2.04	 1	 22	 0.255	 0.0	 0.0	 0.0	 0.0	 0.0	 0.0	 0.0	 0.0	 0.0	 0.0	 0.0; % NG
	115	 144.0	 36.538	 72.0	 -72.0	 1.1	 180.0	 1	 144	 22.5	 0.0	 0.0	 0.0	 0.0	 0.0	 0.0	 0.0	 0.0	 0.0	 0.0	 0.0; % NG
	125	 159.0	 27.567	 80.0	 -80.0	 1.1	 156.06	 1	 159	 19.51	 0.0	 0.0	 0.0	 0.0	 0.0	 0.0	 0.0	 0.0	 0.0	 0.0	 0.0; % NG
	126	 169.943	 4.411	 103.0	 -103.0	 1.07781	 156.06	 1	 206	 19.51	 0.0	 0.0	 0.0	 0.0	 0.0	 0.0	 0.0	 0.0	 0.0	 0.0	 0.0; % NG
	127	 133.0	 67.0	 67.0	 -69.6	 1.0977	 156.06	 1	 133	 19.51	 0.0	 0.0	 0.0	 0.0	 0.0	 0.0	 0.0	 0.0	 0.0	 0.0	 0.0; % NG
	135	 264.0	 69.115	 208.02	 -132.0	 1.1	 535.68	 1	 264	 66.96	 0.0	 0.0	 0.0	 0.0	 0.0	 0.0	 0.0	 0.0	 0.0	 0.0	 0.0; % NG
	136	 287.0	 81.462	 208.02	 -144.0	 1.1	 535.68	 1	 287	 66.96	 0.0	 0.0	 0.0	 0.0	 0.0	 0.0	 0.0	 0.0	 0.0	 0.0	 0.0; % NG
	147	 130.502	 5.05	 206.0	 -206.0	 1.05729	 120.6	 1	 411	 15.075	 0.0	 0.0	 0.0	 0.0	 0.0	 0.0	 0.0	 0.0	 0.0	 0.0	 0.0; % COW
	151	 19.997	 0.346	 22.0	 -22.0	 1.08257	 6.48	 1	 43	 0.81	 0.0	 0.0	 0.0	 0.0	 0.0	 0.0	 0.0	 0.0	 0.0	 0.0	 0.0; % NG
	152	 11.585	 13.413	 81.0	 -81.0	 1.1	 92.67	 1	 161	 11.585	 0.0	 0.0	 0.0	 0.0	 0.0	 0.0	 0.0	 0.0	 0.0	 0.0	 0.0; % PEL
	153	 99.879	 4.913	 127.0	 -127.0	 1.08256	 92.67	 1	 254	 11.585	 0.0	 0.0	 0.0	 0.0	 0.0	 0.0	 0.0	 0.0	 0.0	 0.0	 0.0; % NG
	154	 11.585	 18.411	 45.0	 -45.0	 1.1	 92.67	 1	 90	 11.585	 0.0	 0.0	 0.0	 0.0	 0.0	 0.0	 0.0	 0.0	 0.0	 0.0	 0.0; % PEL
	155	 99.984	 1.768	 85.0	 -85.0	 1.08256	 92.67	 1	 169	 11.585	 0.0	 0.0	 0.0	 0.0	 0.0	 0.0	 0.0	 0.0	 0.0	 0.0	 0.0; % COW
	161	 2232.0	 71.678	 1261.0	 -1261.0	 1.06582	 166.32	 0	 2521	 20.79	 0.0	 0.0	 0.0	 0.0	 0.0	 0.0	 0.0	 0.0	 0.0	 0.0	 0.0; % NG
	164	 2692.0	 716.456	 1521.0	 -1521.0	 1.07271	 14.4	 0	 3041	 1.8	 0.0	 0.0	 0.0	 0.0	 0.0	 0.0	 0.0	 0.0	 0.0	 0.0	 0.0; % NG
	165	 318.0	 15.391	 185.0	 -185.0	 1.07271	 31.2	 0	 369	 3.9	 0.0	 0.0	 0.0	 0.0	 0.0	 0.0	 0.0	 0.0	 0.0	 0.0	 0.0; % PEL
	166	 1900.0	 179.845	 1073.0	 -1073.0	 1.07271	 11.28	 0	 2146	 1.41	 0.0	 0.0	 0.0	 0.0	 0.0	 0.0	 0.0	 0.0	 0.0	 0.0	 0.0; % NG
	167	 41.998	 0.442	 34.0	 -34.0	 1.07487	 11.28	 1	 68	 1.41	 0.0	 0.0	 0.0	 0.0	 0.0	 0.0	 0.0	 0.0	 0.0	 0.0	 0.0; % NG
	168	 -365.801	 29.029	 79.0	 -79.0	 1.07271	 11.28	 0	 157	 1.41	 0.0	 0.0	 0.0	 0.0	 0.0	 0.0	 0.0	 0.0	 0.0	 0.0	 0.0; % NG
	169	 0.0	 42.0	 50.4	 -50.4	 1.07271	 11.28	 0	 34	 1.41	 0.0	 0.0	 0.0	 0.0	 0.0	 0.0	 0.0	 0.0	 0.0	 0.0	 0.0; % PEL
	170	 35.596	 0.52	 43.0	 -43.0	 1.07273	 11.28	 1	 86	 1.41	 0.0	 0.0	 0.0	 0.0	 0.0	 0.0	 0.0	 0.0	 0.0	 0.0	 0.0; % NG
	182	 2.625	 11.063	 32.0	 -32.0	 1.1	 21.0	 1	 63	 2.625	 0.0	 0.0	 0.0	 0.0	 0.0	 0.0	 0.0	 0.0	 0.0	 0.0	 0.0; % PEL
	183	 63.0	 16.0	 34.8	 -34.8	 1.08729	 31.92	 1	 63	 3.99	 0.0	 0.0	 0.0	 0.0	 0.0	 0.0	 0.0	 0.0	 0.0	 0.0	 0.0; % NG
	189	 85.375	 77.646	 260.0	 -260.0	 1.1	 682.98	 1	 520	 85.375	 0.0	 0.0	 0.0	 0.0	 0.0	 0.0	 0.0	 0.0	 0.0	 0.0	 0.0; % PEL
	196	 2628.0	 531.748	 1484.0	 -1484.0	 1.07094	 81.0	 0	 2968	 10.125	 0.0	 0.0	 0.0	 0.0	 0.0	 0.0	 0.0	 0.0	 0.0	 0.0	 0.0; % NG
	197	 707.0	 121.39	 399.0	 -399.0	 1.07094	 81.0	 0	 798	 10.125	 0.0	 0.0	 0.0	 0.0	 0.0	 0.0	 0.0	 0.0	 0.0	 0.0	 0.0; % NG
];

%% generator cost data
%	2	startup	shutdown	n	c(n-1)	...	c0
mpc.gencost = [
	2	 0.0	 0.0	 3	   0.000000	   7.655388	   0.000000; % PEL
	2	 0.0	 0.0	 3	   0.000000	   1.291168	   0.000000; % NG
	2	 0.0	 0.0	 3	   0.000000	   1.180470	   0.000000; % NG
	2	 0.0	 0.0	 3	   0.000000	   0.984820	   0.000000; % NG
	2	 0.0	 0.0	 3	   0.000000	   1.367036	   0.000000; % NG
	2	 0.0	 0.0	 3	   0.000000	   0.657236	   0.000000; % NG
	2	 0.0	 0.0	 3	   0.000000	   6.972329	   0.000000; % PEL
	2	 0.0	 0.0	 3	   0.000000	   0.816652	   0.000000; % NG
	2	 0.0	 0.0	 3	   0.000000	   6.680928	   0.000000; % PEL
	2	 0.0	 0.0	 3	   0.000000	   6.673443	   0.000000; % PEL
	2	 0.0	 0.0	 3	   0.000000	   7.280628	   0.000000; % PEL
	2	 0.0	 0.0	 3	   0.000000	   1.232325	   0.000000; % NG
	2	 0.0	 0.0	 3	   0.000000	   0.983282	   0.000000; % NG
	2	 0.0	 0.0	 3	   0.000000	   0.712963	   0.000000; % NG
	2	 0.0	 0.0	 3	   0.000000	   6.999182	   0.000000; % PEL
	2	 0.0	 0.0	 3	   0.000000	   0.856210	   0.000000; % COW
	2	 0.0	 0.0	 3	   0.000000	   7.117781	   0.000000; % PEL
	2	 0.0	 0.0	 3	   0.000000	   7.294991	   0.000000; % PEL
	2	 0.0	 0.0	 3	   0.000000	   1.138054	   0.000000; % NG
	2	 0.0	 0.0	 3	   0.000000	   6.825582	   0.000000; % PEL
	2	 0.0	 0.0	 3	   0.000000	   7.285965	   0.000000; % PEL
	2	 0.0	 0.0	 3	   0.000000	   6.811111	   0.000000; % PEL
	2	 0.0	 0.0	 3	   0.000000	   1.100243	   0.000000; % NG
	2	 0.0	 0.0	 3	   0.000000	   1.067336	   0.000000; % NG
	2	 0.0	 0.0	 3	   0.000000	   0.983834	   0.000000; % NG
	2	 0.0	 0.0	 3	   0.000000	   0.970405	   0.000000; % NG
	2	 0.0	 0.0	 3	   0.000000	   0.594265	   0.000000; % NG
	2	 0.0	 0.0	 3	   0.000000	   0.735311	   0.000000; % NG
	2	 0.0	 0.0	 3	   0.000000	   1.131941	   0.000000; % NG
	2	 0.0	 0.0	 3	   0.000000	   0.836211	   0.000000; % NG
	2	 0.0	 0.0	 3	   0.000000	   0.844457	   0.000000; % COW
	2	 0.0	 0.0	 3	   0.000000	   1.160989	   0.000000; % NG
	2	 0.0	 0.0	 3	   0.000000	   6.930812	   0.000000; % PEL
	2	 0.0	 0.0	 3	   0.000000	   1.246461	   0.000000; % NG
	2	 0.0	 0.0	 3	   0.000000	   7.057646	   0.000000; % PEL
	2	 0.0	 0.0	 3	   0.000000	   0.922904	   0.000000; % COW
	2	 0.0	 0.0	 3	   0.000000	   1.048601	   0.000000; % NG
	2	 0.0	 0.0	 3	   0.000000	   1.032337	   0.000000; % NG
	2	 0.0	 0.0	 3	   0.000000	   6.913205	   0.000000; % PEL
	2	 0.0	 0.0	 3	   0.000000	   0.961660	   0.000000; % NG
	2	 0.0	 0.0	 3	   0.000000	   0.714534	   0.000000; % NG
	2	 0.0	 0.0	 3	   0.000000	   1.304782	   0.000000; % NG
	2	 0.0	 0.0	 3	   0.000000	   7.195024	   0.000000; % PEL
	2	 0.0	 0.0	 3	   0.000000	   0.838281	   0.000000; % NG
	2	 0.0	 0.0	 3	   0.000000	   6.956464	   0.000000; % PEL
	2	 0.0	 0.0	 3	   0.000000	   1.123803	   0.000000; % NG
	2	 0.0	 0.0	 3	   0.000000	   7.129206	   0.000000; % PEL
	2	 0.0	 0.0	 3	   0.000000	   0.876957	   0.000000; % NG
	2	 0.0	 0.0	 3	   0.000000	   1.217626	   0.000000; % NG
];

%% branch data
%	fbus	tbus	r	x	b	rateA	rateB	rateC	ratio	angle	status	angmin	angmax
mpc.branch = [
	2	 1	 0.000673	 0.003339	 0.0	 100.0	 0.0	 0.0	 0.0	 0.0	 1	 -30.0	 30.0;
	1	 119	 0.018542	 0.119758	 0.02285	 221.1	 0.0	 0.0	 0.0	 0.0	 1	 -30.0	 30.0;
	124	 1	 0.005615	 0.036268	 0.00692	 221.1	 0.0	 0.0	 0.0	 0.0	 1	 -30.0	 30.0;
	193	 1	 0.004258	 0.027501	 0.00525	 221.1	 0.0	 0.0	 0.0	 0.0	 1	 -30.0	 30.0;
	4	 3	 0.000573	 0.003303	 0.0	 100.0	 0.0	 0.0	 0.0	 0.0	 1	 -30.0	 30.0;
	57	 3	 0.008505	 0.058098	 0.00988	 221.1	 0.0	 0.0	 0.0	 0.0	 1	 -30.0	 30.0;
	3	 137	 0.005889	 0.038035	 0.00726	 221.1	 0.0	 0.0	 0.0	 0.0	 1	 -30.0	 30.0;
	6	 5	 0.000694	 0.003337	 0.0	 100.0	 0.0	 0.0	 0.0	 0.0	 1	 -30.0	 30.0;
	48	 5	 0.006246	 0.043513	 0.00711	 221.1	 0.0	 0.0	 0.0	 0.0	 1	 -30.0	 30.0;
	5	 64	 0.007877	 0.054875	 0.00897	 221.1	 0.0	 0.0	 0.0	 0.0	 1	 -30.0	 30.0;
	8	 7	 0.000634	 0.003189	 0.0	 100.0	 0.0	 0.0	 0.0	 0.0	 1	 -30.0	 30.0;
	7	 86	 0.003756	 0.024259	 0.00463	 221.1	 0.0	 0.0	 0.0	 0.0	 1	 -30.0	 30.0;
	7	 101	 0.003597	 0.023232	 0.00443	 221.1	 0.0	 0.0	 0.0	 0.0	 1	 -30.0	 30.0;
	7	 148	 0.008667	 0.05598	 0.01068	 221.1	 0.0	 0.0	 0.0	 0.0	 1	 -30.0	 30.0;
	10	 9	 0.000585	 0.003967	 0.0	 100.0	 0.0	 0.0	 0.0	 0.0	 1	 -30.0	 30.0;
	9	 124	 0.008069	 0.055123	 0.00938	 221.1	 0.0	 0.0	 0.0	 0.0	 1	 -30.0	 30.0;
	131	 9	 0.004139	 0.026732	 0.0051	 221.1	 0.0	 0.0	 0.0	 0.0	 1	 -30.0	 30.0;
	9	 141	 0.004446	 0.03097	 0.00506	 221.1	 0.0	 0.0	 0.0	 0.0	 1	 -30.0	 30.0;
	9	 193	 0.003695	 0.025244	 0.00429	 221.1	 0.0	 0.0	 0.0	 0.0	 1	 -30.0	 30.0;
	12	 11	 0.000534	 0.003533	 0.0	 100.0	 0.0	 0.0	 0.0	 0.0	 1	 -30.0	 30.0;
	13	 11	 0.000619	 0.003606	 0.0	 100.0	 0.0	 0.0	 0.0	 0.0	 1	 -30.0	 30.0;