%%%%%%%%%%%%%%%%%%%%%%%%%%%%%%%%%%%%%%%%%%%%%%%%%%%%%%%%%%%%%%%%%%%%%%%%%%%
%%%%                                                                  %%%%%
%%%%    IEEE PES Power Grid Library - Optimal Power Flow - v17.07     %%%%%
%%%%          (https://github.com/power-grid-lib/pglib-opf)           %%%%%
%%%%             Benchmark Group - Active Power Increase              %%%%%
%%%%                         27 - June - 2017                         %%%%%
%%%%                                                                  %%%%%
%%%%%%%%%%%%%%%%%%%%%%%%%%%%%%%%%%%%%%%%%%%%%%%%%%%%%%%%%%%%%%%%%%%%%%%%%%%
function mpc = pglib_opf_case3375wp_mp__api
mpc.version = '2';
mpc.baseMVA = 100.0;

%% area data
%	area	refbus
mpc.areas = [
	1	 1;
];

%% bus data
%	bus_i	type	Pd	Qd	Gs	Bs	area	Vm	Va	baseKV	zone	Vmax	Vmin
mpc.bus = [
	10000	 1	 0.00	 0.00	 0.0	 0.0	 0	    1.03861	   -0.21211	 400.0	 0	    1.05000	    0.95000;
	10001	 1	 0.00	 0.00	 0.0	 0.0	 0	    1.04677	   -1.78572	 400.0	 0	    1.05000	    0.95000;
	10002	 1	 0.00	 0.00	 0.0	 0.0	 0	    1.09427	    1.95438	 220.0	 0	    1.11000	    0.95000;
	10003	 1	 0.00	 0.00	 0.0	 0.0	 0	    1.04586	   -3.35697	 400.0	 0	    1.05000	    0.95000;
	10004	 1	 0.00	 0.00	 0.0	 0.0	 0	    1.04305	   -1.96822	 400.0	 0	    1.05000	    0.95000;
	10005	 1	 0.00	 0.00	 0.0	 0.0	 0	    1.04763	   -0.79597	 400.0	 0	    1.05000	    0.95000;
	10006	 1	 0.00	 0.00	 0.0	 0.0	 0	    1.03867	    1.89489	 400.0	 0	    1.05000	    0.95000;
	10007	 1	 0.00	 0.00	 0.0	 0.0	 0	    1.10137	    4.03653	 220.0	 0	    1.11000	    0.95000;
	10008	 1	 0.00	 0.00	 0.0	 0.0	 0	    1.08141	   -1.19646	 220.0	 0	    1.11000	    0.95000;
	10009	 1	 0.00	 0.00	 0.0	 0.0	 0	    1.04833	   -1.70409	 400.0	 0	    1.05000	    0.95000;
	10010	 1	 0.00	 0.00	 0.0	 0.0	 0	    1.04957	    2.66887	 400.0	 0	    1.05000	    0.95000;
	10011	 1	 0.00	 0.00	 0.0	 0.0	 0	    1.04915	   -2.33817	 400.0	 0	    1.05000	    0.95000;
	10012	 1	 0.00	 0.00	 0.0	 0.0	 0	    1.04915	   -2.33817	 400.0	 0	    1.05000	    0.95000;
	10013	 1	 0.00	 0.00	 0.0	 0.0	 0	    1.04500	    0.09855	 400.0	 0	    1.05000	    0.95000;
	10014	 1	 0.00	 0.00	 0.0	 0.0	 0	    1.04526	    0.08270	 400.0	 0	    1.05000	    0.95000;
	10015	 1	 0.00	 0.00	 0.0	 0.0	 0	    1.04692	   -2.65557	 400.0	 0	    1.05000	    0.95000;
	10016	 1	 0.00	 0.00	 0.0	 0.0	 0	    1.04505	    0.13455	 400.0	 0	    1.05000	    0.95000;
	10017	 1	 0.00	 0.00	 0.0	 0.0	 0	    1.04567	    0.31002	 400.0	 0	    1.05000	    0.95000;
	10018	 1	 0.00	 0.00	 0.0	 0.0	 0	    1.04500	    0.13565	 400.0	 0	    1.05000	    0.95000;
	10019	 1	 0.00	 0.00	 0.0	 0.0	 0	    1.04526	    0.08266	 400.0	 0	    1.05000	    0.95000;
	10020	 1	 0.00	 0.00	 0.0	 0.0	 0	    1.04737	   -1.34328	 400.0	 0	    1.05000	    0.95000;
	10021	 1	 0.00	 0.00	 0.0	 0.0	 0	    1.07315	   -4.46113	 220.0	 0	    1.11000	    0.95000;
	10022	 1	 0.00	 0.00	 0.0	 0.0	 0	    1.07238	   -4.65860	 220.0	 0	    1.11000	    0.95000;
	10023	 1	 0.00	 0.00	 0.0	 0.0	 0	    1.04348	    0.50199	 400.0	 0	    1.05000	    0.95000;
	10024	 1	 0.00	 0.00	 0.0	 0.0	 0	    1.04350	    0.45910	 400.0	 0	    1.05000	    0.95000;
	10025	 1	 0.00	 0.00	 0.0	 0.0	 0	    1.04343	    0.48224	 400.0	 0	    1.05000	    0.95000;
	10026	 1	 0.00	 0.00	 0.0	 0.0	 0	    1.03947	    3.61197	 400.0	 0	    1.05000	    0.95000;
	10027	 1	 0.00	 0.00	 0.0	 0.0	 0	    1.03935	    3.73823	 400.0	 0	    1.05000	    0.95000;
	10028	 1	 0.00	 0.00	 0.0	 0.0	 0	    1.04018	    4.37020	 400.0	 0	    1.05000	    0.95000;
	10029	 1	 0.00	 0.00	 0.0	 0.0	 0	    1.04994	    3.57681	 400.0	 0	    1.05000	    0.95000;
	10030	 1	 0.00	 0.00	 0.0	 0.0	 0	    1.04988	    3.54706	 400.0	 0	    1.05000	    0.95000;
	10031	 1	 0.00	 0.00	 0.0	 0.0	 0	    1.08252	    0.73488	 220.0	 0	    1.11000	    0.95000;
	10032	 1	 0.00	 0.00	 0.0	 0.0	 0	    1.03982	    3.72054	 400.0	 0	    1.05000	    0.95000;
	10033	 1	 0.00	 0.00	 0.0	 0.0	 0	    1.03979	    3.71801	 400.0	 0	    1.05000	    0.95000;
	10034	 1	 0.00	 0.00	 0.0	 0.0	 0	    1.04231	   -2.53797	 400.0	 0	    1.05000	    0.95000;
	10035	 1	 0.00	 0.00	 0.0	 0.0	 0	    1.07807	    2.42432	 220.0	 0	    1.11000	    0.95000;
	10036	 1	 0.00	 0.00	 0.0	 0.0	 0	    1.07814	    2.42250	 220.0	 0	    1.11000	    0.95000;
	10037	 1	 0.00	 0.00	 0.0	 0.0	 0	    1.03981	    3.56684	 400.0	 0	    1.05000	    0.95000;
	10038	 1	 0.00	 0.00	 0.0	 0.0	 0	    1.03986	    3.56691	 400.0	 0	    1.05000	    0.95000;
	10039	 1	 0.00	 0.00	 0.0	 0.0	 0	    1.04139	    3.07349	 400.0	 0	    1.05000	    0.95000;
	10040	 1	 0.00	 0.00	 0.0	 0.0	 0	    1.03677	   -1.64329	 400.0	 0	    1.05000	    0.95000;
	10041	 1	 0.00	 0.00	 0.0	 0.0	 0	    1.05000	    3.38142	 400.0	 0	    1.05000	    0.95000;
	10042	 1	 0.00	 0.00	 0.0	 0.0	 0	    1.04811	   -2.97264	 400.0	 0	    1.05000	    0.95000;
	10043	 1	 0.00	 0.00	 0.0	 0.0	 0	    1.07939	    1.30115	 220.0	 0	    1.11000	    0.95000;
	10044	 1	 0.00	 0.00	 0.0	 0.0	 0	    1.09345	    3.35745	 220.0	 0	    1.11000	    0.95000;
	10045	 1	 0.00	 0.00	 0.0	 0.0	 0	    1.08260	   -0.98547	 220.0	 0	    1.11000	    0.95000;
	10046	 1	 0.00	 0.00	 0.0	 0.0	 0	    1.07234	   -4.65811	 220.0	 0	    1.11000	    0.95000;
	10047	 1	 0.00	 0.00	 0.0	 0.0	 0	    1.04554	   -4.03755	 400.0	 0	    1.05000	    0.95000;
	10048	 1	 0.00	 0.00	 0.0	 0.0	 0	    1.03713	   -0.47957	 400.0	 0	    1.05000	    0.95000;
	10049	 1	 0.00	 0.00	 0.0	 0.0	 0	    1.04362	   -0.24717	 400.0	 0	    1.05000	    0.95000;
	10050	 1	 0.00	 0.00	 0.0	 0.0	 0	    1.05000	    3.38142	 400.0	 0	    1.05000	    0.95000;
	10051	 1	 0.00	 0.00	 0.0	 0.0	 0	    1.06825	   -4.72788	 220.0	 0	    1.11000	    0.95000;
	10052	 1	 0.00	 0.00	 0.0	 0.0	 0	    1.04192	   -3.88461	 400.0	 0	    1.05000	    0.95000;
	10053	 1	 0.00	 0.00	 0.0	 0.0	 0	    1.08334	    0.97299	 220.0	 0	    1.11000	    0.95000;
	10054	 1	 0.00	 0.00	 0.0	 0.0	 0	    1.08334	    0.97299	 220.0	 0	    1.11000	    0.95000;
	10055	 1	 0.00	 0.00	 0.0	 0.0	 0	    1.07665	   -2.73502	 220.0	 0	    1.11000	    0.95000;
	10056	 1	 0.00	 0.00	 0.0	 0.0	 0	    1.04069	    1.97539	 400.0	 0	    1.05000	    0.95000;
	10057	 1	 0.00	 0.00	 0.0	 0.0	 0	    1.03962	    2.31744	 400.0	 0	    1.05000	    0.95000;
	10058	 1	 0.00	 0.00	 0.0	 0.0	 0	    1.06452	   -2.95599	 220.0	 0	    1.11000	    0.95000;
	10059	 1	 0.00	 0.00	 0.0	 0.0	 0	    1.05000	   -2.71425	 400.0	 0	    1.05000	    0.95000;
	10060	 1	 0.00	 0.00	 0.0	 0.0	 0	    1.03983	    3.56688	 400.0	 0	    1.05000	    0.95000;
	10061	 1	 0.00	 0.00	 0.0	 0.0	 0	    1.04069	    1.97539	 400.0	 0	    1.05000	    0.95000;
	10062	 1	 0.00	 0.00	 0.0	 0.0	 0	    1.04737	    0.38037	 400.0	 0	    1.05000	    0.95000;
	10063	 1	 0.00	 0.00	 0.0	 0.0	 0	    1.04526	    0.08271	 400.0	 0	    1.05000	    0.95000;
	10064	 1	 0.00	 0.00	 0.0	 0.0	 0	    1.06680	   -3.71098	 220.0	 0	    1.11000	    0.95000;
	10065	 1	 0.00	 0.00	 0.0	 0.0	 0	    1.04604	   -1.21936	 400.0	 0	    1.05000	    0.95000;
	10066	 1	 0.00	 0.00	 0.0	 0.0	 0	    1.04819	    0.49037	 400.0	 0	    1.05000	    0.95000;
	10067	 1	 0.00	 0.00	 0.0	 0.0	 0	    1.06704	   -3.30757	 220.0	 0	    1.11000	    0.95000;
	10068	 1	 0.00	 0.00	 0.0	 0.0	 0	    1.04822	   -0.72398	 400.0	 0	    1.05000	    0.95000;
	10069	 1	 0.00	 0.00	 0.0	 0.0	 0	    1.06396	   -7.56264	 220.0	 0	    1.11000	    0.95000;
	10070	 1	 0.00	 0.00	 0.0	 0.0	 0	    1.04910	   -2.33792	 400.0	 0	    1.05000	    0.95000;
	10071	 2	 18.45	 8.00	 0.0	 0.0	 0	    1.09879	    3.45476	 220.0	 0	    1.11000	    0.95000;
	10072	 1	 0.00	 0.00	 0.0	 0.0	 0	    1.08213	    0.66706	 220.0	 0	    1.11000	    0.95000;
	10073	 1	 0.00	 0.00	 0.0	 0.0	 1	    1.08476	    2.39450	 220.0	 0	    1.11000	    0.95000;
	10074	 1	 0.00	 0.00	 0.0	 0.0	 0	    1.08406	    2.42761	 220.0	 0	    1.11000	    0.95000;
	10075	 1	 0.00	 0.00	 0.0	 0.0	 0	    1.08738	    2.53650	 220.0	 0	    1.11000	    0.95000;
	10076	 1	 0.00	 0.00	 0.0	 0.0	 0	    1.04349	    0.45916	 400.0	 0	    1.05000	    0.95000;
	10077	 1	 0.00	 0.00	 0.0	 0.0	 0	    1.04349	    0.45916	 400.0	 0	    1.05000	    0.95000;
	10078	 1	 305.50	 -14.00	 0.0	 0.0	 0	    1.03515	    2.64293	 400.0	 0	    1.05000	    0.95000;
	10079	 2	 -1529.60	 4542.90	 0.0	 0.0	 0	    1.01620	    8.34543	 400.0	 0	    1.05000	    0.95000;
	10080	 2	 -159.10	 -181.00	 0.0	 0.0	 0	    1.03489	    1.49584	 400.0	 0	    1.05000	    0.95000;
	10081	 1	 -1078.30	 -374.10	 0.0	 0.0	 0	    1.03340	    6.46017	 400.0	 0	    1.05000	    0.95000;
	10082	 1	 1087.71	 310.20	 0.0	 0.0	 0	    1.00487	    4.03009	 400.0	 0	    1.05000	    0.95000;
	10083	 1	 111.86	 26.00	 0.0	 0.0	 0	    1.03980	    1.37699	 400.0	 0	    1.05000	    0.95000;
	10084	 1	 0.69	 160.00	 0.0	 0.0	 0	    1.04096	    1.67641	 400.0	 0	    1.05000	    0.95000;
	10085	 1	 186.36	 183.60	 0.0	 0.0	 0	    1.03975	    1.46078	 400.0	 0	    1.05000	    0.95000;
	10086	 1	 332.82	 221.60	 0.0	 0.0	 0	    1.03974	    1.45775	 400.0	 0	    1.05000	    0.95000;
	10087	 1	 0.00	 0.00	 0.0	 0.0	 0	    1.04212	    1.84995	 400.0	 0	    1.05000	    0.95000;
	10088	 1	 0.00	 0.00	 0.0	 0.0	 0	    1.08765	    1.53166	 220.0	 0	    1.11000	    0.95000;
	10089	 1	 0.00	 0.00	 0.0	 0.0	 0	    1.08535	    1.38489	 220.0	 0	    1.11000	    0.95000;
	10090	 2	 316.44	 279.60	 0.0	 0.0	 0	    1.03966	    1.33822	 400.0	 0	    1.05000	    0.95000;
	10091	 1	 108.63	 111.80	 0.0	 0.0	 0	    1.03931	    1.30101	 400.0	 0	    1.05000	    0.95000;
	10092	 1	 0.00	 0.00	 0.0	 0.0	 0	    1.08367	    1.31173	 220.0	 0	    1.11000	    0.95000;
	10093	 1	 0.00	 0.00	 0.0	 0.0	 0	    1.08640	    1.48223	 220.0	 0	    1.11000	    0.95000;
	10094	 2	 0.00	 0.00	 0.0	 0.0	 0	    1.02688	   -1.12488	 400.0	 0	    1.05000	    0.95000;
	10095	 2	 4.40	 -2590.10	 0.0	 0.0	 0	    1.02411	   -1.83186	 400.0	 0	    1.05000	    0.95000;
	10096	 1	 562.77	 79.10	 0.0	 0.0	 0	    1.01211	   -2.60218	 400.0	 0	    1.05000	    0.95000;
	10097	 1	 693.08	 147.90	 0.0	 0.0	 0	    1.01581	   -2.24977	 400.0	 0	    1.05000	    0.95000;
	10098	 1	 607.75	 265.10	 0.0	 0.0	 0	    1.01376	   -1.47354	 400.0	 0	    1.05000	    0.95000;
	10099	 1	 0.00	 0.00	 0.0	 0.0	 0	    1.00586	    5.53816	 400.0	 0	    1.05000	    0.95000;
	10100	 2	 0.00	 0.00	 0.0	 0.0	 0	    1.01184	    8.37728	 400.0	 0	    1.05000	    0.95000;
	10101	 1	 0.00	 0.00	 0.0	 0.0	 0	    1.04995	   -7.82730	 220.0	 0	    1.11000	    0.95000;
	10102	 1	 138.39	 25.00	 0.0	 0.0	 0	    1.06086	   -2.87510	 220.0	 0	    1.11000	    0.95000;
	10103	 1	 0.00	 0.00	 0.0	 0.0	 0	    1.03813	    1.05440	 400.0	 0	    1.05000	    0.95000;
	10104	 2	 230.87	 48.70	 0.0	 0.0	 0	    1.04261	    2.13553	 400.0	 0	    1.05000	    0.95000;
	10105	 1	 0.00	 0.00	 0.0	 0.0	 0	    1.05687	    1.24711	 220.0	 0	    1.11000	    0.95000;
	10106	 1	 0.00	 0.00	 0.0	 0.0	 0	    1.00698	    4.15502	 400.0	 0	    1.05000	    0.95000;
	10107	 1	 0.00	 0.00	 0.0	 0.0	 0	    1.04549	    5.22460	 400.0	 0	    1.05000	    0.95000;
	10108	 1	 0.00	 0.00	 0.0	 0.0	 0	    1.04471	    4.76709	 400.0	 0	    1.05000	    0.95000;
	10109	 1	 0.00	 0.00	 0.0	 0.0	 0	    1.04548	    5.30649	 400.0	 0	    1.05000	    0.95000;
	10110	 1	 0.00	 0.00	 0.0	 0.0	 0	    1.04467	    4.84225	 400.0	 0	    1.05000	    0.95000;
	10111	 1	 0.00	 0.00	 0.0	 0.0	 0	    1.02589	    5.76408	 400.0	 0	    1.05000	    0.95000;
	10112	 1	 0.00	 0.00	 0.0	 0.0	 0	    1.10790	    2.93189	 220.0	 0	    1.11000	    0.95000;
	10113	 1	 0.00	 0.00	 0.0	 0.0	 0	    1.02046	    6.12214	 400.0	 0	    1.05000	    0.95000;
	10114	 1	 0.00	 0.00	 0.0	 0.0	 0	    1.08663	    1.46923	 220.0	 0	    1.11000	    0.95000;
	10115	 2	 0.00	 0.00	 0.0	 0.0	 0	    1.00337	    5.65625	 400.0	 0	    1.05000	    0.95000;
	10116	 2	 0.00	 0.00	 0.0	 0.0	 0	    1.00337	    5.65625	 400.0	 0	    1.05000	    0.95000;
	10117	 1	 0.00	 0.00	 0.0	 0.0	 0	    1.02784	   -0.98146	 400.0	 0	    1.05000	    0.95000;
	10118	 2	 0.00	 0.00	 0.0	 0.0	 0	    1.02365	    8.61453	 400.0	 0	    1.05000	    0.95000;
	10119	 1	 0.00	 0.00	 0.0	 0.0	 0	    1.01339	    4.95021	 400.0	 0	    1.05000	    0.95000;
	10120	 1	 0.00	 0.00	 0.0	 0.0	 0	    1.03751	    0.76035	 400.0	 0	    1.05000	    0.95000;
	10121	 1	 92.26	 20.00	 0.0	 0.0	 0	    1.05887	   -2.42655	 220.0	 0	    1.11000	    0.95000;
	10122	 1	 0.00	 0.00	 0.0	 0.0	 0	    1.04145	   -1.59334	 220.0	 0	    1.11000	    0.95000;
	10123	 1	 0.00	 0.00	 0.0	 0.0	 0	    0.99517	    3.25137	 400.0	 0	    1.05000	    0.95000;
	10124	 1	 0.00	 0.00	 0.0	 0.0	 0	    1.04933	    6.03551	 400.0	 0	    1.05000	    0.95000;
	10125	 1	 0.00	 0.00	 0.0	 0.0	 0	    1.01643	    3.82138	 400.0	 0	    1.05000	    0.95000;
	10126	 2	 0.00	 0.00	 0.0	 0.0	 0	    1.01132	    5.36921	 400.0	 0	    1.05000	    0.95000;
	10127	 1	 0.00	 0.00	 0.0	 0.0	 0	    1.09238	    0.93016	 220.0	 0	    1.11000	    0.95000;
	10128	 1	 0.00	 0.00	 0.0	 0.0	 0	    1.09238	    0.93016	 220.0	 0	    1.11000	    0.95000;
	10129	 2	 0.23	 100.00	 0.0	 0.0	 0	    1.04440	    6.93102	 400.0	 0	    1.05000	    0.95000;
	10130	 1	 0.00	 0.00	 0.0	 0.0	 0	    1.04450	    6.90490	 400.0	 0	    1.05000	    0.95000;
	10131	 1	 0.00	 0.00	 0.0	 0.0	 0	    1.01195	    4.59217	 400.0	 0	    1.05000	    0.95000;
	10132	 2	 0.00	 0.00	 0.0	 0.0	 0	    1.02357	    5.45155	 400.0	 0	    1.05000	    0.95000;
	10133	 1	 0.00	 0.00	 0.0	 0.0	 0	    1.05000	    2.97976	 400.0	 0	    1.05000	    0.95000;
	10134	 1	 0.00	 0.00	 0.0	 0.0	 0	    1.04732	    2.48604	 400.0	 0	    1.05000	    0.95000;
	10135	 1	 0.00	 0.00	 0.0	 0.0	 0	    1.05166	   -2.31312	 220.0	 0	    1.11000	    0.95000;
	10136	 1	 0.00	 0.00	 0.0	 0.0	 0	    1.06441	    1.63042	 220.0	 0	    1.11000	    0.95000;
	10137	 1	 0.00	 0.00	 0.0	 0.0	 0	    1.04954	   -9.72792	 220.0	 0	    1.11000	    0.95000;
	10138	 1	 0.00	 0.00	 0.0	 0.0	 0	    1.03597	    0.41976	 400.0	 0	    1.05000	    0.95000;
	10139	 2	 0.00	 0.00	 0.0	 0.0	 0	    1.04262	    6.94867	 400.0	 0	    1.05000	    0.95000;
	10140	 2	 0.00	 0.00	 0.0	 0.0	 0	    1.04102	    6.25113	 400.0	 0	    1.05000	    0.95000;
	10141	 2	 0.00	 0.00	 0.0	 0.0	 0	    1.02089	    6.96082	 400.0	 0	    1.05000	    0.95000;
	10142	 1	 0.00	 0.00	 0.0	 0.0	 0	    1.03841	    0.49027	 400.0	 0	    1.05000	    0.95000;
	10143	 1	 0.00	 0.00	 0.0	 0.0	 0	    1.03664	    5.08905	 400.0	 0	    1.05000	    0.95000;
	10144	 1	 0.00	 0.00	 0.0	 0.0	 0	    1.03668	    5.09629	 400.0	 0	    1.05000	    0.95000;
	10145	 1	 0.00	 0.00	 0.0	 0.0	 0	    1.01060	    4.63553	 400.0	 0	    1.05000	    0.95000;
	10146	 2	 0.00	 0.00	 0.0	 0.0	 0	    1.04734	    4.45268	 220.0	 0	    1.11000	    0.95000;
	10147	 1	 0.00	 0.00	 0.0	 0.0	 0	    1.02445	    4.30439	 400.0	 0	    1.05000	    0.95000;
	10148	 1	 0.00	 0.00	 0.0	 0.0	 0	    1.06671	    2.01876	 220.0	 0	    1.11000	    0.95000;
	10149	 1	 0.00	 0.00	 0.0	 0.0	 0	    1.06668	    2.01603	 220.0	 0	    1.11000	    0.95000;
	10150	 2	 0.00	 0.00	 0.0	 0.0	 0	    1.03888	    1.11440	 400.0	 0	    1.05000	    0.95000;
	10151	 1	 0.00	 0.00	 0.0	 0.0	 0	    1.00621	    5.29518	 400.0	 0	    1.05000	    0.95000;
	10152	 1	 0.00	 0.00	 0.0	 0.0	 0	    1.04675	    5.31573	 400.0	 0	    1.05000	    0.95000;
	10153	 1	 0.00	 0.00	 0.0	 0.0	 0	    1.02731	    5.90192	 400.0	 0	    1.05000	    0.95000;
	10154	 1	 92.26	 20.00	 0.0	 0.0	 0	    1.03977	    3.60168	 220.0	 0	    1.11000	    0.95000;
	10155	 1	 0.00	 0.00	 0.0	 0.0	 0	    1.07738	    0.98098	 220.0	 0	    1.11000	    0.95000;
	10156	 1	 0.00	 0.00	 0.0	 0.0	 0	    1.02935	    2.16052	 400.0	 0	    1.05000	    0.95000;
	10157	 1	 0.00	 0.00	 0.0	 0.0	 0	    1.08589	    1.66219	 220.0	 0	    1.11000	    0.95000;
	10158	 1	 0.00	 0.00	 0.0	 0.0	 0	    1.01544	    5.22779	 400.0	 0	    1.05000	    0.95000;
	10159	 1	 0.00	 0.00	 0.0	 0.0	 0	    1.11000	    3.09251	 220.0	 0	    1.11000	    0.95000;
	10160	 1	 0.00	 0.00	 0.0	 0.0	 0	    1.07427	   -9.66833	 220.0	 0	    1.11000	    0.95000;
	10161	 1	 0.00	 0.00	 0.0	 0.0	 0	    1.01809	    4.22048	 400.0	 0	    1.05000	    0.95000;
	10162	 1	 0.00	 0.00	 0.0	 0.0	 0	    1.05171	   -0.55916	 220.0	 0	    1.11000	    0.95000;
	10163	 1	 0.00	 0.00	 0.0	 0.0	 0	    1.09119	    0.35599	 220.0	 0	    1.11000	    0.95000;
	10164	 1	 0.00	 0.00	 0.0	 0.0	 0	    1.03483	    1.49422	 400.0	 0	    1.05000	    0.95000;
	10165	 1	 0.00	 0.00	 0.0	 0.0	 0	    1.03216	    1.17686	 400.0	 0	    1.05000	    0.95000;
	10166	 1	 0.00	 0.00	 0.0	 0.0	 0	    1.06904	   -1.75693	 220.0	 0	    1.11000	    0.95000;
	10167	 1	 0.00	 0.00	 0.0	 0.0	 0	    1.02282	    4.80243	 400.0	 0	    1.05000	    0.95000;
	10168	 1	 0.00	 0.00	 0.0	 0.0	 0	    1.02282	    4.80243	 400.0	 0	    1.05000	    0.95000;
	10169	 1	 0.00	 0.00	 0.0	 0.0	 0	    1.02322	    4.85676	 400.0	 0	    1.05000	    0.95000;
	10170	 1	 0.00	 0.00	 0.0	 0.0	 0	    1.02322	    4.85676	 400.0	 0	    1.05000	    0.95000;
	10171	 2	 -104.80	 -159.00	 0.0	 0.0	 0	    1.02142	   -1.11591	 400.0	 0	    1.05000	    0.95000;
	10172	 1	 247.40	 -57.50	 0.0	 0.0	 0	    1.02414	   -1.83212	 400.0	 0	    1.05000	    0.95000;
	10173	 1	 247.40	 -57.50	 0.0	 0.0	 0	    1.02414	   -1.83212	 400.0	 0	    1.05000	    0.95000;
	10174	 1	 428.42	 403.50	 0.0	 0.0	 0	    1.01143	   -2.62873	 400.0	 0	    1.05000	    0.95000;
	10176	 2	 -249.90	 162.60	 0.0	 0.0	 0	    1.01618	   -0.79664	 400.0	 0	    1.05000	    0.95000;
	10177	 2	 -249.90	 162.60	 0.0	 0.0	 0	    1.01636	   -0.71679	 400.0	 0	    1.05000	    0.95000;
	10178	 1	 60.54	 207.20	 0.0	 0.0	 0	    1.02995	    2.95317	 400.0	 0	    1.05000	    0.95000;
	10179	 1	 437.65	 54.60	 0.0	 0.0	 0	    1.03818	   -1.06143	 400.0	 0	    1.05000	    0.95000;
	10180	 1	 73.60	 -95.60	 0.0	 0.0	 0	    1.08819	   -4.30982	 220.0	 0	    1.11000	    0.95000;
	10181	 1	 73.60	 -95.60	 0.0	 0.0	 0	    1.08819	   -4.30982	 220.0	 0	    1.11000	    0.95000;
	10182	 1	 107.20	 -44.40	 0.0	 0.0	 0	    1.05000	   -0.51806	 400.0	 0	    1.05000	    0.95000;
	10183	 1	 99.18	 8.00	 0.0	 0.0	 0	    1.04790	    2.39506	 400.0	 0	    1.05000	    0.95000;
	10184	 1	 80.73	 49.00	 0.0	 0.0	 0	    1.05182	   -1.68217	 220.0	 0	    1.11000	    0.95000;
	10185	 1	 0.00	 0.00	 0.0	 0.0	 0	    1.05000	   -0.30568	 400.0	 0	    1.05000	    0.95000;
	10186	 2	 0.00	 0.00	 0.0	 0.0	 0	    1.08372	    4.37778	 220.0	 0	    1.11000	    0.95000;
	10187	 2	 0.00	 0.00	 0.0	 0.0	 0	    1.08491	    2.66932	 220.0	 0	    1.11000	    0.95000;
	10188	 2	 0.00	 0.00	 0.0	 0.0	 0	    1.04542	    3.87233	 400.0	 0	    1.05000	    0.95000;
	10189	 2	 10.20	 0.00	 0.0	 0.0	 0	    1.04633	    3.15031	 400.0	 0	    1.05000	    0.95000;
	10190	 2	 0.00	 0.00	 0.0	 0.0	 0	    1.04599	    4.04785	 400.0	 0	    1.05000	    0.95000;
	10191	 2	 0.00	 0.00	 0.0	 0.0	 0	    1.04569	    3.86390	 400.0	 0	    1.05000	    0.95000;
	10192	 2	 0.00	 0.00	 0.0	 0.0	 0	    1.07901	    8.97791	 220.0	 0	    1.11000	    0.95000;
	10193	 1	 0.00	 0.00	 0.0	 0.0	 0	    1.07898	    8.97003	 220.0	 0	    1.11000	    0.95000;
	10194	 2	 0.00	 0.00	 0.0	 0.0	 0	    1.04399	    3.92778	 400.0	 0	    1.05000	    0.95000;
	10195	 1	 0.00	 0.00	 0.0	 0.0	 0	    1.04468	    3.82601	 400.0	 0	    1.05000	    0.95000;
	10196	 2	 0.00	 0.00	 0.0	 0.0	 0	    1.03978	   -0.46689	 400.0	 0	    1.05000	    0.95000;
	10197	 1	 340.20	 51.90	 0.0	 0.0	 0	    1.04449	    0.73487	 400.0	 0	    1.05000	    0.95000;
	10198	 1	 0.00	 0.00	 0.0	 0.0	 0	    1.04657	    2.22449	 400.0	 0	    1.05000	    0.95000;
	10199	 1	 355.19	 40.00	 0.0	 0.0	 0	    1.07851	    1.40991	 220.0	 0	    1.11000	    0.95000;
	10200	 1	 0.00	 0.00	 0.0	 0.0	 0	    1.07854	    1.41833	 220.0	 0	    1.11000	    0.95000;
	10201	 1	 0.00	 0.00	 0.0	 0.0	 0	    1.03802	    2.44345	 400.0	 0	    1.05000	    0.95000;
	10202	 1	 118.78	 28.00	 0.0	 0.0	 0	    1.04644	    3.62265	 220.0	 0	    1.11000	    0.95000;
	10203	 1	 0.00	 0.00	 0.0	 0.0	 0	    1.04644	    3.62265	 220.0	 0	    1.11000	    0.95000;
	10204	 1	 196.05	 33.00	 0.0	 0.0	 0	    1.04351	    3.25660	 400.0	 0	    1.05000	    0.95000;
	10205	 1	 177.60	 6.00	 0.0	 0.0	 0	    1.04923	   -0.30154	 400.0	 0	    1.05000	    0.95000;
	10206	 1	 172.98	 15.00	 0.0	 0.0	 0	    1.02903	   -4.84947	 220.0	 0	    1.11000	    0.95000;
	10207	 1	 130.31	 15.00	 0.0	 0.0	 0	    1.04994	    1.93760	 400.0	 0	    1.05000	    0.95000;
	10208	 1	 74.96	 11.00	 0.0	 0.0	 0	    1.04475	    0.34473	 400.0	 0	    1.05000	    0.95000;
	10209	 1	 69.19	 10.00	 0.0	 0.0	 0	    1.06396	   -0.78285	 220.0	 0	    1.11000	    0.95000;
	10210	 1	 235.26	 16.90	 0.0	 0.0	 0	    1.04971	    1.28069	 400.0	 0	    1.05000	    0.95000;
	10211	 1	 163.76	 10.90	 0.0	 0.0	 0	    1.06475	   -2.88212	 220.0	 0	    1.11000	    0.95000;
	10212	 1	 95.72	 19.00	 0.0	 0.0	 0	    1.04078	   -3.33423	 220.0	 0	    1.11000	    0.95000;
	10213	 1	 217.96	 35.00	 0.0	 0.0	 0	    1.04181	    0.49262	 400.0	 0	    1.05000	    0.95000;
	10214	 1	 19.60	 6.00	 0.0	 0.0	 0	    1.04747	   -0.21647	 400.0	 0	    1.05000	    0.95000;
	10215	 1	 0.00	 0.00	 0.0	 0.0	 0	    1.04847	   -0.10431	 400.0	 0	    1.05000	    0.95000;
	10216	 1	 2.00	 -6.00	 0.0	 0.0	 0	    1.04521	   -2.56563	 220.0	 0	    1.11000	    0.95000;
	10217	 1	 88.00	 -4.00	 0.0	 0.0	 0	    1.04846	   -0.01401	 400.0	 0	    1.05000	    0.95000;
	10218	 1	 0.00	 0.00	 0.0	 0.0	 0	    1.04533	    3.59287	 400.0	 0	    1.05000	    0.95000;
	10219	 1	 0.00	 0.00	 0.0	 0.0	 0	    1.04533	    3.59273	 400.0	 0	    1.05000	    0.95000;
	10220	 1	 0.00	 0.00	 0.0	 0.0	 0	    1.04466	    3.82609	 400.0	 0	    1.05000	    0.95000;
	10221	 1	 0.00	 0.00	 0.0	 0.0	 0	    1.04600	    4.33227	 400.0	 0	    1.05000	    0.95000;
	10222	 1	 57.66	 20.00	 0.0	 0.0	 0	    1.05942	    6.08491	 220.0	 0	    1.11000	    0.95000;
	10223	 2	 -338.10	 155.60	 0.0	 0.0	 0	    1.04682	    4.84049	 400.0	 0	    1.05000	    0.95000;
	10225	 2	 225.68	 126.60	 0.0	 0.0	 0	    1.05579	    1.85239	 110.0	 0	    1.12000	    0.95000;
	10226	 2	 163.64	 93.10	 0.0	 0.0	 0	    1.06719	    1.42503	 110.0	 0	    1.12000	    0.95000;
	10227	 2	 270.43	 57.50	 0.0	 0.0	 0	    1.09876	   -3.54921	 110.0	 0	    1.12000	    0.95000;
	10228	 2	 447.68	 98.20	 0.0	 0.0	 0	    1.05725	  -14.09475	 110.0	 0	    1.12000	    0.95000;
	10229	 2	 97.68	 29.10	 0.0	 0.0	 0	    1.09619	    3.16854	 110.0	 0	    1.12000	    0.95000;
	10230	 2	 0.00	 0.00	 0.0	 0.0	 0	    1.06103	   -6.19534	 110.0	 0	    1.12000	    0.95000;
	10231	 1	 224.19	 43.40	 0.0	 0.0	 0	    1.01984	   -8.85688	 110.0	 0	    1.12000	    0.95000;
	10232	 2	 225.68	 43.30	 0.0	 0.0	 0	    1.02631	    2.47433	 110.0	 0	    1.12000	    0.95000;
	10233	 2	 592.41	 92.50	 0.0	 0.0	 0	    1.04743	   -8.21526	 110.0	 0	    1.12000	    0.95000;
	10234	 2	 525.18	 108.80	 0.0	 0.0	 0	    1.09364	  -15.18607	 110.0	 0	    1.12000	    0.95000;
	10235	 2	 71.27	 19.60	 0.0	 0.0	 0	    1.10566	    4.54368	 110.0	 0	    1.12000	    0.95000;
	10236	 2	 300.76	 80.80	 0.0	 0.0	 0	    1.07420	   -0.56438	 110.0	 0	    1.12000	    0.95000;
	10237	 2	 229.95	 65.60	 0.0	 0.0	 0	    1.11479	    6.62531	 110.0	 0	    1.12000	    0.95000;
	10238	 2	 455.52	 96.40	 0.0	 0.0	 0	    0.99982	   -5.00479	 110.0	 0	    1.12000	    0.95000;
	10239	 2	 397.17	 71.00	 0.0	 0.0	 0	    1.06275	   -0.34369	 110.0	 0	    1.12000	    0.95000;
	10240	 2	 0.00	 0.00	 0.0	 0.0	 0	    1.07145	    2.73013	 110.0	 0	    1.12000	    0.95000;
	10241	 1	 0.00	 0.00	 0.0	 0.0	 0	    1.06185	   -5.63214	 110.0	 0	    1.12000	    0.95000;
	10242	 1	 0.00	 0.00	 0.0	 0.0	 0	    1.10373	    9.72456	 110.0	 0	    1.12000	    0.95000;
	10243	 1	 0.00	 0.00	 0.0	 0.0	 0	    1.05596	    1.85169	 110.0	 0	    1.12000	    0.95000;
	10244	 1	 0.00	 0.00	 0.0	 0.0	 0	    1.06926	    4.58080	 110.0	 0	    1.12000	    0.95000;
	10245	 1	 213.81	 59.70	 0.0	 0.0	 0	    1.11540	    6.75184	 110.0	 0	    1.12000	    0.95000;
	10246	 2	 4.61	 2.00	 0.0	 0.0	 0	    1.03182	    1.90275	 14.0	 0	    1.12000	    0.95000;
	10247	 2	 16.15	 10.00	 0.0	 0.0	 0	    1.11846	   -4.61915	 14.0	 0	    1.12000	    0.95000;
	10248	 2	 16.15	 10.00	 0.0	 0.0	 0	    1.12000	   10.65816	 14.0	 0	    1.12000	    0.95000;
	10249	 2	 5.77	 3.00	 0.0	 0.0	 0	    1.00086	   -1.47505	 23.0	 0	    1.12000	    0.95000;
	10250	 2	 32.29	 17.00	 0.0	 0.0	 0	    1.03334	    2.37927	 16.0	 0	    1.12000	    0.95000;
	10251	 2	 32.29	 17.00	 0.0	 0.0	 0	    1.06805	   10.59000	 16.0	 0	    1.12000	    0.95000;
	10252	 2	 32.29	 17.00	 0.0	 0.0	 0	    1.03284	    2.38208	 16.0	 0	    1.12000	    0.95000;
	10253	 2	 30.79	 5.90	 0.0	 0.0	 0	    1.06361	   11.64608	 15.0	 0	    1.12000	    0.95000;
	10254	 2	 26.52	 10.00	 0.0	 0.0	 0	    1.04274	    0.52636	 20.0	 0	    1.12000	    0.95000;
	10255	 2	 4.61	 2.00	 0.0	 0.0	 0	    1.03666	   -2.79631	 16.0	 0	    1.12000	    0.95000;
	10256	 2	 34.60	 10.00	 0.0	 0.0	 0	    1.11033	    1.80701	 16.0	 0	    1.12000	    0.95000;
	10257	 2	 17.30	 5.00	 0.0	 0.0	 0	    1.10986	    1.13640	 16.0	 0	    1.12000	    0.95000;
	10258	 2	 23.06	 8.00	 0.0	 0.0	 0	    1.09655	    4.70157	 16.0	 0	    1.12000	    0.95000;
	10259	 2	 34.60	 14.00	 0.0	 0.0	 0	    0.97354	    5.30619	 17.0	 0	    1.12000	    0.95000;
	10260	 2	 51.89	 21.00	 0.0	 0.0	 0	    1.10683	    8.24810	 17.0	 0	    1.12000	    0.95000;
	10261	 2	 92.26	 40.00	 0.0	 0.0	 0	    0.99687	    8.09741	 25.0	 0	    1.12000	    0.95000;
	10262	 2	 92.26	 40.00	 0.0	 0.0	 0	    0.99547	    7.23477	 25.0	 0	    1.12000	    0.95000;
	10263	 2	 11.53	 4.00	 0.0	 0.0	 0	    1.08582	    1.82479	 14.0	 0	    1.12000	    0.95000;
	10264	 2	 34.60	 10.00	 0.0	 0.0	 0	    1.00320	    9.42354	 17.0	 0	    1.12000	    0.95000;
	10265	 2	 34.60	 10.00	 0.0	 0.0	 0	    1.10250	    8.94932	 16.0	 0	    1.12000	    0.95000;
	10266	 2	 344.47	 37.90	 0.0	 0.0	 0	    1.04658	   -6.29054	 110.0	 0	    1.12000	    0.95000;
	10267	 2	 228.80	 53.40	 0.0	 0.0	 0	    1.07145	   -3.47571	 110.0	 0	    1.12000	    0.95000;
	10268	 2	 132.39	 20.40	 0.0	 0.0	 0	    1.06435	    0.88798	 110.0	 0	    1.12000	    0.95000;
	10269	 2	 317.37	 110.60	 0.0	 0.0	 0	    1.10452	   10.03937	 110.0	 0	    1.12000	    0.95000;
	10270	 2	 71.27	 23.70	 0.0	 0.0	 0	    1.05323	    0.79836	 110.0	 0	    1.12000	    0.95000;
	10271	 2	 444.33	 67.00	 0.0	 0.0	 0	    1.08418	   -0.26001	 110.0	 0	    1.12000	    0.95000;
	10272	 2	 120.05	 17.50	 0.0	 0.0	 0	    1.07141	   -7.52486	 110.0	 0	    1.12000	    0.95000;
	10273	 2	 623.89	 91.40	 0.0	 0.0	 0	    1.02343	   -6.50921	 110.0	 0	    1.12000	    0.95000;
	10274	 2	 295.57	 100.70	 0.0	 0.0	 0	    1.05752	   -6.94070	 110.0	 0	    1.12000	    0.95000;
	10275	 2	 0.00	 0.00	 0.0	 0.0	 0	    1.05562	    1.85398	 110.0	 0	    1.12000	    0.95000;
	10276	 2	 189.59	 34.00	 0.0	 0.0	 0	    1.06616	   -6.48562	 110.0	 0	    1.12000	    0.95000;
	10277	 2	 711.30	 133.20	 0.0	 0.0	 0	    1.06313	   -8.79667	 110.0	 0	    1.12000	    0.95000;
	10278	 2	 17.30	 10.00	 0.0	 0.0	 0	    1.10583	    2.36500	 12.0	 0	    1.12000	    0.95000;
	10279	 2	 17.30	 10.00	 0.0	 0.0	 0	    1.10583	    2.36500	 12.0	 0	    1.12000	    0.95000;
	10280	 1	 172.75	 37.00	 0.0	 0.0	 0	    1.05557	   -1.78875	 110.0	 0	    1.12000	    0.95000;
	10281	 2	 122.24	 22.40	 0.0	 0.0	 0	    1.07606	   -5.77784	 110.0	 0	    1.12000	    0.95000;
	10282	 2	 419.66	 100.10	 0.0	 0.0	 0	    1.08001	   -9.34646	 110.0	 0	    1.12000	    0.95000;
	10283	 1	 0.00	 0.00	 0.0	 0.0	 0	    1.02109	    2.47433	 13.0	 0	    1.12000	    0.95000;
	10284	 2	 1294.72	 280.70	 0.0	 0.0	 0	    1.12000	    0.55911	 110.0	 0	    1.12000	    0.95000;
	10285	 2	 179.56	 32.10	 0.0	 0.0	 0	    1.05442	   -2.42958	 110.0	 0	    1.12000	    0.95000;
	10287	 1	 0.00	 0.00	 0.0	 0.0	 0	    1.03500	    0.00000	 110.0	 0	    1.12000	    0.95000;
	10288	 2	 227.76	 44.60	 0.0	 0.0	 0	    1.03299	   -5.70740	 110.0	 0	    1.12000	    0.95000;
	10289	 2	 143.69	 23.40	 0.0	 0.0	 0	    1.05633	   -5.54659	 110.0	 0	    1.12000	    0.95000;
	10290	 2	 171.71	 31.10	 0.0	 0.0	 0	    1.06263	  -12.25960	 110.0	 0	    1.12000	    0.95000;
	10291	 2	 305.26	 53.50	 0.0	 0.0	 0	    1.08244	   -3.81687	 110.0	 0	    1.12000	    0.95000;
	10292	 2	 420.69	 158.70	 0.0	 0.0	 0	    1.08321	    0.07645	 110.0	 0	    1.12000	    0.95000;
	10293	 2	 62.97	 21.60	 0.0	 0.0	 0	    1.10346	    9.72553	 110.0	 0	    1.12000	    0.95000;
	10294	 2	 20.18	 3.90	 0.0	 0.0	 1	    1.09629	    1.97280	 110.0	 0	    1.12000	    0.95000;
	10295	 2	 397.17	 104.00	 0.0	 0.0	 0	    0.99554	   -8.46715	 110.0	 0	    1.12000	    0.95000;
	10296	 2	 317.48	 104.10	 0.0	 0.0	 0	    1.10018	    3.05197	 110.0	 0	    1.12000	    0.95000;
	10297	 1	 188.67	 2.30	 0.0	 0.0	 0	    1.11020	   -0.36098	 110.0	 0	    1.12000	    0.95000;
	10298	 1	 104.60	 61.00	 0.0	 0.0	 0	    1.07019	    0.18651	 110.0	 0	    1.12000	    0.95000;
	10299	 1	 362.11	 87.00	 0.0	 0.0	 0	    1.04622	   -0.71849	 110.0	 0	    1.12000	    0.95000;
	10300	 1	 39.21	 13.00	 0.0	 0.0	 0	    1.04047	   -4.86277	 110.0	 0	    1.12000	    0.95000;
	10301	 1	 107.00	 -22.00	 0.0	 0.0	 0	    1.07527	   -3.01043	 110.0	 0	    1.12000	    0.95000;
	10302	 1	 185.67	 58.00	 0.0	 0.0	 0	    1.08327	   -1.91127	 110.0	 0	    1.12000	    0.95000;
	10303	 1	 186.24	 37.00	 0.0	 0.0	 0	    1.02313	   -2.65645	 110.0	 0	    1.12000	    0.95000;
	10304	 1	 186.24	 37.00	 0.0	 0.0	 0	    1.02313	   -2.65645	 110.0	 0	    1.12000	    0.95000;
	10305	 1	 232.00	 -45.90	 0.0	 0.0	 0	    1.11047	   -0.13902	 110.0	 0	    1.12000	    0.95000;
	10306	 1	 164.91	 58.10	 0.0	 0.0	 0	    1.08956	    0.46665	 110.0	 0	    1.12000	    0.95000;
	10307	 1	 128.58	 32.50	 0.0	 0.0	 0	    1.07036	   -2.90574	 110.0	 0	    1.12000	    0.95000;
	10308	 1	 128.58	 32.50	 0.0	 0.0	 0	    1.09065	    0.07148	 110.0	 0	    1.12000	    0.95000;