%%%%%%%%%%%%%%%%%%%%%%%%%%%%%%%%%%%%%%%%%%%%%%%%%%%%%%%%%%%%%%%%%%%%%%%%%%%
%%%%                                                                  %%%%%
%%%%    IEEE PES Power Grid Library - Optimal Power Flow - v17.07     %%%%%
%%%%          (https://github.com/power-grid-lib/pglib-opf)           %%%%%
%%%%             Benchmark Group - Active Power Increase              %%%%%
%%%%                         27 - June - 2017                         %%%%%
%%%%                                                                  %%%%%
%%%%%%%%%%%%%%%%%%%%%%%%%%%%%%%%%%%%%%%%%%%%%%%%%%%%%%%%%%%%%%%%%%%%%%%%%%%
function mpc = pglib_opf_case2736sp_mp__api
mpc.version = '2';
mpc.baseMVA = 100.0;

%% area data
%	area	refbus
mpc.areas = [
	1	 18;
];

%% bus data
%	bus_i	type	Pd	Qd	Gs	Bs	area	Vm	Va	baseKV	zone	Vmax	Vmin
mpc.bus = [
	1	 1	 0.00	 0.00	 0.0	 0.0	 1	    1.06734	   -1.45726	 220.0	 1	    1.11000	    0.95000;
	2	 1	 0.00	 0.00	 0.0	 0.0	 1	    1.07702	    0.22992	 220.0	 1	    1.11000	    0.95000;
	3	 1	 0.00	 0.00	 0.0	 0.0	 1	    1.06975	  -15.88108	 220.0	 1	    1.11000	    0.95000;
	4	 1	 0.00	 0.00	 0.0	 0.0	 1	    1.06990	   -3.02122	 220.0	 1	    1.11000	    0.95000;
	5	 1	 0.00	 0.00	 0.0	 0.0	 1	    1.06991	   -3.01545	 220.0	 1	    1.11000	    0.95000;
	6	 1	 0.00	 0.00	 0.0	 0.0	 1	    1.07410	   -7.38812	 220.0	 1	    1.11000	    0.95000;
	7	 1	 0.00	 0.00	 0.0	 0.0	 1	    1.07419	   -7.38534	 220.0	 1	    1.11000	    0.95000;
	8	 1	 0.00	 0.00	 0.0	 0.0	 1	    1.03509	   -4.90281	 400.0	 1	    1.05000	    0.95000;
	9	 1	 0.00	 0.00	 0.0	 0.0	 1	    1.03510	   -4.89708	 400.0	 1	    1.05000	    0.95000;
	10	 1	 0.00	 0.00	 0.0	 0.0	 1	    1.06841	   -7.80295	 220.0	 1	    1.11000	    0.95000;
	11	 1	 0.00	 0.00	 0.0	 0.0	 1	    1.06832	   -7.81050	 220.0	 1	    1.11000	    0.95000;
	12	 1	 0.00	 0.00	 0.0	 0.0	 1	    1.06826	   -7.81428	 220.0	 1	    1.11000	    0.95000;
	13	 1	 0.00	 0.00	 0.0	 0.0	 1	    1.06823	   -7.82086	 220.0	 1	    1.11000	    0.95000;
	14	 1	 0.00	 0.00	 0.0	 0.0	 1	    1.02803	   -4.42269	 400.0	 1	    1.05000	    0.95000;
	15	 1	 0.00	 0.00	 0.0	 0.0	 1	    1.03666	   -7.21458	 400.0	 1	    1.05000	    0.95000;
	16	 1	 0.00	 0.00	 0.0	 0.0	 1	    1.03666	   -7.21458	 400.0	 1	    1.05000	    0.95000;
	17	 2	 0.00	 0.00	 0.0	 0.0	 1	    1.08246	  -12.14458	 220.0	 1	    1.11000	    0.95000;
	18	 1	 0.00	 0.00	 0.0	 0.0	 1	    1.08254	  -12.14911	 220.0	 1	    1.11000	    0.95000;
	19	 1	 0.00	 0.00	 0.0	 0.0	 1	    1.07185	   -2.37363	 220.0	 1	    1.11000	    0.95000;
	20	 1	 0.00	 0.00	 0.0	 0.0	 1	    1.07192	   -2.36133	 220.0	 1	    1.11000	    0.95000;
	21	 1	 0.00	 0.00	 0.0	 0.0	 1	    1.07484	  -10.31528	 220.0	 1	    1.11000	    0.95000;
	22	 1	 0.00	 0.00	 0.0	 0.0	 1	    1.07484	  -10.31528	 220.0	 1	    1.11000	    0.95000;
	23	 1	 0.00	 0.00	 0.0	 0.0	 1	    1.06728	   -7.52435	 220.0	 1	    1.11000	    0.95000;
	24	 1	 0.00	 0.00	 0.0	 0.0	 1	    1.07350	   -1.93544	 220.0	 1	    1.11000	    0.95000;
	25	 1	 0.00	 0.00	 0.0	 0.0	 1	    1.03403	   -7.10228	 400.0	 1	    1.05000	    0.95000;
	26	 2	 91.79	 72.05	 0.0	 0.0	 1	    1.07688	   -0.92380	 220.0	 1	    1.11000	    0.95000;
	27	 2	 126.95	 122.06	 0.0	 0.0	 1	    1.08167	    0.79065	 220.0	 1	    1.11000	    0.95000;
	28	 3	 73.30	 74.00	 0.0	 0.0	 1	    1.03581	    0.00000	 400.0	 1	    1.05000	    0.95000;
	29	 2	 73.30	 74.00	 0.0	 0.0	 1	    1.03577	   -0.00961	 400.0	 1	    1.05000	    0.95000;
	30	 1	 0.00	 0.00	 0.0	 0.0	 1	    1.07065	   -7.99773	 220.0	 1	    1.11000	    0.95000;
	31	 1	 0.00	 0.00	 0.0	 0.0	 1	    1.03156	   -1.34040	 400.0	 1	    1.05000	    0.95000;
	32	 1	 0.00	 0.00	 0.0	 0.0	 1	    1.06575	   -8.09559	 220.0	 1	    1.11000	    0.95000;
	33	 1	 0.00	 0.00	 0.0	 0.0	 1	    1.08410	   -2.69958	 220.0	 1	    1.11000	    0.95000;
	34	 1	 0.00	 0.00	 0.0	 0.0	 1	    1.08182	   -4.37119	 220.0	 2	    1.11000	    0.95000;
	35	 1	 0.00	 0.00	 0.0	 0.0	 1	    1.08152	   -5.22872	 220.0	 2	    1.11000	    0.95000;
	36	 1	 0.00	 0.00	 0.0	 0.0	 1	    1.09360	   -3.41176	 220.0	 2	    1.11000	    0.95000;
	37	 1	 0.00	 0.00	 0.0	 0.0	 1	    1.09357	   -3.41701	 220.0	 2	    1.11000	    0.95000;
	38	 1	 0.00	 0.00	 0.0	 0.0	 1	    1.06169	   -5.74870	 220.0	 2	    1.11000	    0.95000;
	39	 1	 0.00	 0.00	 0.0	 0.0	 1	    1.10937	   -3.09883	 220.0	 2	    1.11000	    0.95000;
	40	 1	 0.00	 0.00	 0.0	 0.0	 1	    1.10926	   -3.09913	 220.0	 2	    1.11000	    0.95000;
	41	 1	 0.00	 0.00	 0.0	 0.0	 1	    1.02213	   -2.04463	 400.0	 2	    1.05000	    0.95000;
	42	 2	 25.00	 0.00	 0.0	 0.0	 1	    1.10506	   -2.21448	 220.0	 2	    1.11000	    0.95000;
	43	 2	 26.00	 0.00	 0.0	 0.0	 1	    1.10512	   -2.19468	 220.0	 2	    1.11000	    0.95000;
	44	 2	 25.00	 0.00	 0.0	 0.0	 1	    1.03901	   -1.60586	 400.0	 2	    1.05000	    0.95000;
	45	 1	 0.00	 0.00	 0.0	 0.0	 1	    1.03896	   -1.61091	 400.0	 2	    1.05000	    0.95000;
	46	 1	 0.00	 0.00	 0.0	 0.0	 1	    1.10466	   -3.82160	 220.0	 2	    1.11000	    0.95000;
	47	 1	 0.00	 0.00	 0.0	 0.0	 1	    1.04968	   -7.22505	 400.0	 2	    1.05000	    0.95000;
	48	 1	 0.00	 0.00	 0.0	 0.0	 1	    1.04967	   -7.23386	 400.0	 2	    1.05000	    0.95000;
	49	 1	 0.00	 0.00	 0.0	 0.0	 1	    1.04272	   -2.66564	 400.0	 2	    1.05000	    0.95000;
	50	 1	 0.00	 0.00	 0.0	 0.0	 1	    1.07143	   -4.09014	 220.0	 2	    1.11000	    0.95000;
	51	 1	 0.00	 0.00	 0.0	 0.0	 1	    1.07139	   -4.08227	 220.0	 2	    1.11000	    0.95000;
	52	 1	 0.00	 0.00	 0.0	 0.0	 1	    1.04077	   -1.98288	 400.0	 2	    1.05000	    0.95000;
	53	 1	 0.00	 0.00	 0.0	 0.0	 1	    1.04077	   -1.98180	 400.0	 2	    1.05000	    0.95000;
	54	 2	 13.00	 0.00	 0.0	 0.0	 1	    1.10236	   -1.81917	 220.0	 2	    1.11000	    0.95000;
	55	 2	 13.00	 0.00	 0.0	 0.0	 1	    1.10233	   -1.84100	 220.0	 2	    1.11000	    0.95000;
	56	 2	 13.00	 0.00	 0.0	 0.0	 1	    1.04349	   -0.84045	 400.0	 2	    1.05000	    0.95000;
	57	 2	 26.00	 0.00	 0.0	 0.0	 1	    1.04348	   -0.83592	 400.0	 2	    1.05000	    0.95000;
	58	 2	 133.24	 40.00	 0.0	 0.0	 1	    1.10004	   -3.62586	 220.0	 2	    1.11000	    0.95000;
	59	 1	 0.00	 0.00	 0.0	 0.0	 1	    1.10000	   -3.62192	 220.0	 2	    1.11000	    0.95000;
	60	 1	 0.00	 0.00	 0.0	 0.0	 1	    1.10129	   -3.90012	 220.0	 2	    1.11000	    0.95000;
	61	 1	 0.00	 0.00	 0.0	 0.0	 1	    1.10108	   -3.73407	 220.0	 2	    1.11000	    0.95000;
	62	 1	 0.00	 0.00	 0.0	 0.0	 1	    1.10107	   -3.73514	 220.0	 2	    1.11000	    0.95000;
	63	 1	 0.00	 0.00	 0.0	 0.0	 1	    1.05000	   -3.52354	 400.0	 2	    1.05000	    0.95000;
	64	 1	 0.00	 0.00	 0.0	 0.0	 1	    1.04999	   -3.54267	 400.0	 2	    1.05000	    0.95000;
	65	 1	 0.00	 0.00	 0.0	 0.0	 1	    1.08431	   -4.75527	 220.0	 2	    1.11000	    0.95000;
	66	 1	 0.00	 0.00	 0.0	 0.0	 1	    1.08647	   -4.47216	 220.0	 2	    1.11000	    0.95000;
	67	 1	 0.00	 0.00	 0.0	 0.0	 1	    1.07170	   -2.61162	 220.0	 2	    1.11000	    0.95000;
	68	 1	 0.00	 0.00	 0.0	 0.0	 1	    1.08948	   -1.99986	 220.0	 3	    1.11000	    0.95000;
	69	 1	 10.33	 0.00	 0.0	 0.0	 1	    1.10305	   -0.57151	 220.0	 3	    1.11000	    0.95000;
	70	 1	 12.02	 3.71	 0.0	 0.0	 1	    1.10286	   -0.57561	 220.0	 3	    1.11000	    0.95000;
	71	 1	 0.00	 0.00	 0.0	 0.0	 1	    1.10842	    3.55650	 220.0	 3	    1.11000	    0.95000;
	72	 1	 0.00	 0.00	 0.0	 0.0	 1	    1.10844	    3.55685	 220.0	 3	    1.11000	    0.95000;
	73	 1	 0.00	 0.00	 0.0	 0.0	 1	    1.10847	    1.91778	 220.0	 3	    1.11000	    0.95000;
	74	 1	 0.00	 0.00	 0.0	 0.0	 1	    1.10847	    1.90380	 220.0	 3	    1.11000	    0.95000;
	75	 1	 0.00	 0.00	 0.0	 0.0	 1	    1.10699	    4.14607	 220.0	 3	    1.11000	    0.95000;
	76	 1	 0.00	 0.00	 0.0	 0.0	 1	    1.10692	    4.13919	 220.0	 3	    1.11000	    0.95000;
	77	 2	 40.39	 70.00	 0.0	 0.0	 1	    1.11000	    3.57785	 220.0	 3	    1.11000	    0.95000;
	78	 2	 27.97	 42.00	 0.0	 0.0	 1	    1.11000	    4.18849	 220.0	 3	    1.11000	    0.95000;
	79	 1	 7.38	 0.82	 0.0	 0.0	 1	    1.09850	    3.88383	 220.0	 3	    1.11000	    0.95000;
	80	 1	 0.00	 0.00	 0.0	 0.0	 1	    1.09854	    3.88006	 220.0	 3	    1.11000	    0.95000;
	81	 2	 26.93	 57.00	 0.0	 0.0	 1	    1.02463	   -2.88302	 400.0	 3	    1.05000	    0.95000;
	82	 1	 0.00	 0.00	 0.0	 0.0	 1	    1.09435	   -4.20968	 220.0	 3	    1.11000	    0.95000;
	83	 1	 0.00	 0.00	 0.0	 0.0	 1	    1.10382	    2.17284	 220.0	 3	    1.11000	    0.95000;
	84	 1	 0.00	 0.00	 0.0	 0.0	 1	    1.10389	    2.17928	 220.0	 3	    1.11000	    0.95000;
	85	 1	 44.86	 -6.40	 0.0	 0.0	 1	    1.09257	   -1.68221	 220.0	 3	    1.11000	    0.95000;
	86	 1	 0.00	 0.00	 0.0	 0.0	 1	    1.09256	   -1.68624	 220.0	 3	    1.11000	    0.95000;
	87	 1	 0.00	 0.00	 0.0	 0.0	 1	    1.10143	    0.94409	 220.0	 3	    1.11000	    0.95000;
	88	 1	 0.00	 0.00	 0.0	 0.0	 1	    1.10142	    0.95524	 220.0	 3	    1.11000	    0.95000;
	89	 1	 0.00	 0.00	 0.0	 0.0	 1	    1.09345	   -1.27987	 220.0	 3	    1.11000	    0.95000;
	90	 1	 0.00	 0.00	 0.0	 0.0	 1	    1.09344	   -1.28989	 220.0	 3	    1.11000	    0.95000;
	91	 1	 0.00	 0.00	 0.0	 0.0	 1	    1.03734	   -0.77267	 400.0	 3	    1.05000	    0.95000;
	92	 1	 0.00	 0.00	 0.0	 0.0	 1	    1.03733	   -0.77332	 400.0	 3	    1.05000	    0.95000;
	93	 1	 0.00	 0.00	 0.0	 0.0	 1	    1.10185	    0.97335	 220.0	 3	    1.11000	    0.95000;
	94	 1	 0.00	 0.00	 0.0	 0.0	 1	    1.10183	    0.97983	 220.0	 3	    1.11000	    0.95000;
	95	 1	 0.00	 0.00	 0.0	 0.0	 1	    1.09822	   -0.36783	 220.0	 3	    1.11000	    0.95000;
	96	 1	 0.00	 0.00	 0.0	 0.0	 1	    1.09821	   -0.38683	 220.0	 3	    1.11000	    0.95000;
	97	 2	 18.68	 3.70	 0.0	 0.0	 1	    1.11000	    3.31663	 220.0	 3	    1.11000	    0.95000;
	98	 1	 25.92	 6.13	 0.0	 0.0	 1	    1.10991	    3.29060	 220.0	 3	    1.11000	    0.95000;
	99	 1	 0.00	 0.00	 0.0	 0.0	 1	    1.10309	   -0.54922	 220.0	 3	    1.11000	    0.95000;
	100	 1	 0.00	 0.00	 0.0	 0.0	 1	    1.10310	   -0.54763	 220.0	 3	    1.11000	    0.95000;
	101	 1	 0.00	 0.00	 0.0	 0.0	 1	    1.10222	    3.77738	 220.0	 3	    1.11000	    0.95000;
	102	 1	 0.00	 0.00	 0.0	 0.0	 1	    1.10221	    3.77543	 220.0	 3	    1.11000	    0.95000;
	103	 2	 20.94	 40.00	 0.0	 0.0	 1	    1.10339	    2.60267	 220.0	 3	    1.11000	    0.95000;
	104	 2	 0.00	 0.00	 0.0	 0.0	 1	    1.10332	    2.57585	 220.0	 3	    1.11000	    0.95000;
	105	 2	 10.47	 18.00	 0.0	 0.0	 1	    1.10494	    0.93734	 220.0	 3	    1.11000	    0.95000;
	106	 2	 0.00	 0.00	 0.0	 0.0	 1	    1.10479	    0.92159	 220.0	 3	    1.11000	    0.95000;
	107	 1	 0.00	 13.89	 0.0	 0.0	 1	    1.10054	    0.60262	 220.0	 3	    1.11000	    0.95000;
	108	 1	 110.37	 8.10	 0.0	 0.0	 1	    1.10060	    0.60648	 220.0	 3	    1.11000	    0.95000;
	109	 1	 0.00	 0.00	 0.0	 0.0	 1	    1.10300	    3.30381	 220.0	 3	    1.11000	    0.95000;
	110	 1	 0.00	 0.00	 0.0	 0.0	 1	    1.09067	    4.84911	 220.0	 3	    1.11000	    0.95000;
	111	 1	 0.00	 0.00	 0.0	 0.0	 1	    1.09072	    4.84447	 220.0	 3	    1.11000	    0.95000;
	112	 1	 0.00	 0.00	 0.0	 0.0	 1	    1.10112	    3.60752	 220.0	 3	    1.11000	    0.95000;
	113	 1	 0.00	 0.00	 0.0	 0.0	 1	    1.10119	    3.60749	 220.0	 3	    1.11000	    0.95000;
	114	 1	 0.00	 0.00	 0.0	 0.0	 1	    1.03242	   -2.06237	 400.0	 3	    1.05000	    0.95000;
	115	 2	 0.00	 0.00	 0.0	 0.0	 1	    1.11000	    3.75215	 220.0	 3	    1.11000	    0.95000;
	116	 2	 11.97	 15.00	 0.0	 0.0	 1	    1.10999	    3.75366	 220.0	 3	    1.11000	    0.95000;
	117	 2	 8.23	 10.00	 0.0	 0.0	 1	    1.10994	    4.92201	 220.0	 3	    1.11000	    0.95000;
	118	 1	 0.00	 0.00	 0.0	 0.0	 1	    1.11000	    4.90361	 220.0	 3	    1.11000	    0.95000;
	119	 1	 0.00	 0.00	 0.0	 0.0	 1	    1.04976	   -2.18150	 400.0	 3	    1.05000	    0.95000;
	120	 1	 0.00	 0.00	 0.0	 0.0	 1	    1.04978	   -2.17671	 400.0	 3	    1.05000	    0.95000;
	121	 1	 0.00	 0.00	 0.0	 0.0	 1	    1.04485	   -1.70490	 400.0	 3	    1.05000	    0.95000;
	122	 1	 0.00	 0.00	 0.0	 0.0	 1	    1.04487	   -1.70212	 400.0	 3	    1.05000	    0.95000;
	123	 1	 0.00	 0.00	 0.0	 0.0	 1	    1.10338	    3.61958	 220.0	 3	    1.11000	    0.95000;
	124	 2	 16.46	 17.50	 0.0	 0.0	 1	    1.10984	    4.62025	 220.0	 3	    1.11000	    0.95000;
	125	 2	 61.86	 61.20	 0.0	 0.0	 1	    1.11000	    4.70460	 220.0	 3	    1.11000	    0.95000;
	126	 2	 20.94	 33.00	 0.0	 0.0	 1	    1.02085	   -1.71592	 400.0	 3	    1.05000	    0.95000;
	127	 1	 0.00	 0.00	 0.0	 0.0	 1	    1.02094	   -1.70426	 400.0	 3	    1.05000	    0.95000;
	128	 1	 0.00	 0.00	 0.0	 0.0	 1	    1.09214	   -1.76572	 220.0	 3	    1.11000	    0.95000;
	129	 1	 0.00	 0.00	 0.0	 0.0	 1	    1.09215	   -1.75722	 220.0	 3	    1.11000	    0.95000;
	130	 1	 0.00	 0.00	 0.0	 0.0	 1	    1.09351	   -1.38390	 220.0	 3	    1.11000	    0.95000;
	131	 2	 2.24	 9.00	 0.0	 0.0	 1	    1.11000	    4.96799	 220.0	 3	    1.11000	    0.95000;
	132	 2	 0.00	 0.00	 0.0	 0.0	 1	    1.10695	    4.13896	 220.0	 3	    1.11000	    0.95000;
	133	 2	 16.78	 8.30	 0.0	 0.0	 1	    1.10983	   -1.27153	 220.0	 4	    1.11000	    0.95000;
	134	 2	 15.46	 7.70	 0.0	 0.0	 1	    1.11000	   -1.26110	 220.0	 4	    1.11000	    0.95000;
	135	 1	 0.00	 0.00	 0.0	 0.0	 1	    1.08619	   -8.86673	 220.0	 4	    1.11000	    0.95000;
	136	 1	 0.00	 0.00	 0.0	 0.0	 1	    1.09216	   -7.64181	 220.0	 4	    1.11000	    0.95000;
	137	 1	 0.00	 0.00	 0.0	 0.0	 1	    1.01960	   -7.31943	 400.0	 4	    1.05000	    0.95000;
	138	 1	 0.00	 0.00	 0.0	 0.0	 1	    1.01959	   -7.32305	 400.0	 4	    1.05000	    0.95000;
	139	 1	 0.00	 0.00	 0.0	 0.0	 1	    1.10099	  -10.41817	 220.0	 4	    1.11000	    0.95000;
	140	 1	 0.00	 0.00	 0.0	 0.0	 1	    1.09657	   -4.06992	 220.0	 4	    1.11000	    0.95000;
	141	 1	 0.00	 0.00	 0.0	 0.0	 1	    1.09657	   -4.06992	 220.0	 4	    1.11000	    0.95000;
	142	 1	 0.00	 0.00	 0.0	 0.0	 1	    1.11000	   -4.83063	 220.0	 4	    1.11000	    0.95000;
	143	 1	 0.00	 0.00	 0.0	 0.0	 1	    1.08315	  -10.67240	 220.0	 4	    1.11000	    0.95000;
	144	 1	 0.00	 0.00	 0.0	 0.0	 1	    1.08315	  -10.67240	 220.0	 4	    1.11000	    0.95000;
	145	 2	 0.00	 0.00	 0.0	 0.0	 1	    1.10791	   -4.07139	 220.0	 4	    1.11000	    0.95000;
	146	 2	 0.00	 0.00	 0.0	 0.0	 1	    1.10784	   -4.07486	 220.0	 4	    1.11000	    0.95000;
	147	 2	 38.23	 12.90	 0.0	 0.0	 1	    1.10256	   -2.22879	 220.0	 4	    1.11000	    0.95000;
	148	 1	 0.00	 0.00	 0.0	 0.0	 1	    1.10261	   -2.24790	 220.0	 4	    1.11000	    0.95000;
	149	 2	 16.46	 12.00	 0.0	 0.0	 1	    1.05000	   -5.76721	 400.0	 4	    1.05000	    0.95000;
	150	 2	 17.83	 13.70	 0.0	 0.0	 1	    1.05000	   -5.76556	 400.0	 4	    1.05000	    0.95000;
	151	 1	 0.00	 0.00	 0.0	 0.0	 1	    1.07905	  -11.90659	 220.0	 4	    1.11000	    0.95000;
	152	 1	 0.00	 0.00	 0.0	 0.0	 1	    1.10370	   -7.76889	 220.0	 4	    1.11000	    0.95000;
	153	 1	 0.00	 0.00	 0.0	 0.0	 1	    1.10370	   -7.76195	 220.0	 4	    1.11000	    0.95000;
	154	 2	 29.13	 64.30	 0.0	 0.0	 1	    1.11000	   -4.61843	 220.0	 4	    1.11000	    0.95000;
	155	 2	 23.94	 33.00	 0.0	 0.0	 1	    1.11000	   -4.61839	 220.0	 4	    1.11000	    0.95000;
	156	 1	 0.00	 0.00	 0.0	 0.0	 1	    1.02900	   -4.11850	 400.0	 4	    1.05000	    0.95000;
	157	 2	 14.96	 25.00	 0.0	 0.0	 1	    1.02904	   -4.10758	 400.0	 4	    1.05000	    0.95000;
	158	 1	 0.00	 0.00	 0.0	 0.0	 1	    1.09585	   -3.87432	 220.0	 4	    1.11000	    0.95000;
	159	 1	 0.00	 0.00	 0.0	 0.0	 1	    1.09585	   -3.87432	 220.0	 4	    1.11000	    0.95000;
	160	 1	 0.00	 0.00	 0.0	 0.0	 1	    1.01676	   -7.99823	 400.0	 4	    1.05000	    0.95000;
	161	 1	 0.00	 0.00	 0.0	 0.0	 1	    1.01975	   -7.18373	 400.0	 4	    1.05000	    0.95000;
	162	 1	 0.00	 0.00	 0.0	 0.0	 1	    1.01976	   -7.18432	 400.0	 4	    1.05000	    0.95000;
	163	 2	 8.29	 2.93	 0.0	 0.0	 1	    1.10985	   -4.21657	 220.0	 4	    1.11000	    0.95000;
	164	 2	 27.31	 11.50	 0.0	 0.0	 1	    1.11000	   -4.23132	 220.0	 4	    1.11000	    0.95000;
	165	 1	 0.00	 0.00	 0.0	 0.0	 1	    1.11000	   -4.23132	 220.0	 4	    1.11000	    0.95000;
	166	 1	 0.00	 0.00	 0.0	 0.0	 1	    1.10718	  -15.45033	 220.0	 4	    1.11000	    0.95000;
	167	 1	 0.00	 0.00	 0.0	 0.0	 1	    1.09564	   -4.29151	 220.0	 4	    1.11000	    0.95000;
	168	 1	 0.00	 0.00	 0.0	 0.0	 1	    1.10235	  -11.48253	 220.0	 4	    1.11000	    0.95000;
	169	 1	 0.00	 0.00	 0.0	 0.0	 1	    1.10236	  -11.49527	 220.0	 4	    1.11000	    0.95000;
	170	 1	 0.00	 0.00	 0.0	 0.0	 1	    1.03232	  -10.60266	 400.0	 4	    1.05000	    0.95000;
	171	 1	 0.00	 0.00	 0.0	 0.0	 1	    1.03232	  -10.60266	 400.0	 4	    1.05000	    0.95000;
	172	 1	 0.00	 0.00	 0.0	 0.0	 1	    1.08772	  -10.07823	 220.0	 4	    1.11000	    0.95000;
	173	 1	 0.00	 0.00	 0.0	 0.0	 1	    1.08768	  -10.07889	 220.0	 4	    1.11000	    0.95000;
	174	 1	 0.00	 0.00	 0.0	 0.0	 1	    1.08918	   -8.80744	 220.0	 4	    1.11000	    0.95000;
	175	 1	 0.00	 0.00	 0.0	 0.0	 1	    1.08644	   -8.61464	 220.0	 4	    1.11000	    0.95000;
	176	 1	 0.00	 0.00	 0.0	 0.0	 1	    1.08645	   -8.60612	 220.0	 4	    1.11000	    0.95000;
	177	 1	 0.00	 0.00	 0.0	 0.0	 1	    1.08547	   -7.96771	 220.0	 4	    1.11000	    0.95000;
	178	 1	 0.00	 0.00	 0.0	 0.0	 1	    1.08547	   -7.96771	 220.0	 4	    1.11000	    0.95000;
	179	 2	 4.68	 1.50	 0.0	 0.0	 1	    1.11000	   -7.17570	 220.0	 4	    1.11000	    0.95000;
	180	 1	 0.00	 0.00	 0.0	 0.0	 1	    1.08565	  -10.40299	 220.0	 4	    1.11000	    0.95000;
	181	 1	 0.00	 0.00	 0.0	 0.0	 1	    1.06800	  -12.95116	 220.0	 5	    1.11000	    0.95000;
	182	 1	 0.00	 0.00	 0.0	 0.0	 1	    1.09386	  -12.82887	 220.0	 5	    1.11000	    0.95000;
	183	 1	 0.00	 0.00	 0.0	 0.0	 1	    1.03994	  -11.13996	 400.0	 5	    1.05000	    0.95000;
	184	 1	 0.00	 0.00	 0.0	 0.0	 1	    1.03997	  -11.13196	 400.0	 5	    1.05000	    0.95000;
	185	 1	 0.00	 0.00	 0.0	 0.0	 1	    1.03353	  -13.86655	 400.0	 5	    1.05000	    0.95000;
	186	 1	 0.00	 0.00	 0.0	 0.0	 1	    1.03355	  -13.86836	 400.0	 5	    1.05000	    0.95000;
	187	 1	 0.00	 0.00	 0.0	 0.0	 1	    1.08051	  -16.65507	 220.0	 5	    1.11000	    0.95000;
	188	 1	 0.00	 0.00	 0.0	 0.0	 1	    1.08054	  -16.65385	 220.0	 5	    1.11000	    0.95000;
	189	 1	 0.00	 0.00	 0.0	 0.0	 1	    1.07139	  -13.23958	 220.0	 5	    1.11000	    0.95000;
	190	 1	 0.00	 0.00	 0.0	 0.0	 1	    1.07136	  -13.24620	 220.0	 5	    1.11000	    0.95000;
	191	 1	 0.00	 0.00	 0.0	 0.0	 1	    1.01669	  -12.99723	 400.0	 5	    1.05000	    0.95000;
	192	 1	 0.00	 0.00	 0.0	 0.0	 1	    1.07222	  -12.11782	 220.0	 5	    1.11000	    0.95000;
	193	 1	 0.00	 0.00	 0.0	 0.0	 1	    1.07220	  -12.11236	 220.0	 5	    1.11000	    0.95000;
	194	 1	 0.00	 0.00	 0.0	 0.0	 1	    1.03748	  -14.58493	 400.0	 5	    1.05000	    0.95000;
	195	 1	 0.00	 0.00	 0.0	 0.0	 1	    1.03747	  -14.58664	 400.0	 5	    1.05000	    0.95000;
	196	 1	 0.00	 0.00	 0.0	 0.0	 1	    1.07431	  -15.08754	 220.0	 5	    1.11000	    0.95000;
	197	 1	 0.00	 0.00	 0.0	 0.0	 1	    1.07432	  -15.08608	 220.0	 5	    1.11000	    0.95000;
	198	 1	 0.00	 0.00	 0.0	 -117.0	 1	    1.03011	  -12.25748	 400.0	 5	    1.05000	    0.95000;
	199	 1	 0.00	 0.00	 0.0	 0.0	 1	    1.03017	  -12.25300	 400.0	 5	    1.05000	    0.95000;
	200	 1	 0.00	 0.00	 0.0	 0.0	 1	    1.05656	  -14.40764	 220.0	 5	    1.11000	    0.95000;
	201	 1	 0.00	 0.00	 0.0	 0.0	 1	    1.05652	  -14.40594	 220.0	 5	    1.11000	    0.95000;
	202	 1	 0.00	 0.00	 0.0	 0.0	 1	    1.05624	  -12.64095	 220.0	 5	    1.11000	    0.95000;
	203	 1	 0.00	 0.00	 0.0	 0.0	 1	    1.05617	  -12.65601	 220.0	 5	    1.11000	    0.95000;
	204	 2	 0.00	 0.00	 0.0	 0.0	 1	    1.03409	  -12.87068	 400.0	 5	    1.05000	    0.95000;
	205	 2	 0.00	 0.00	 0.0	 0.0	 1	    1.03409	  -12.87467	 400.0	 5	    1.05000	    0.95000;
	206	 1	 0.00	 0.00	 0.0	 0.0	 1	    1.08945	  -14.93330	 220.0	 5	    1.11000	    0.95000;
	207	 1	 0.00	 0.00	 0.0	 0.0	 1	    1.08944	  -14.92935	 220.0	 5	    1.11000	    0.95000;
	208	 1	 14.35	 1.00	 0.0	 0.0	 1	    1.08871	  -11.50465	 110.0	 1	    1.12000	    0.95000;
	209	 1	 7.17	 0.50	 0.0	 0.0	 1	    1.05111	  -20.75095	 110.0	 1	    1.12000	    0.95000;
	210	 1	 6.38	 2.00	 0.0	 0.0	 1	    1.10783	   -8.69431	 110.0	 1	    1.12000	    0.95000;
	211	 1	 9.72	 5.40	 0.0	 0.0	 1	    1.07956	  -11.79538	 110.0	 1	    1.12000	    0.95000;
	212	 1	 4.30	 0.60	 0.0	 0.0	 1	    1.06466	   -3.46987	 110.0	 1	    1.12000	    0.95000;
	213	 1	 4.78	 0.30	 0.0	 0.0	 1	    1.06143	   -5.28442	 110.0	 1	    1.12000	    0.95000;
	214	 2	 32.48	 12.30	 0.0	 0.0	 1	    1.10638	  -11.16099	 110.0	 1	    1.12000	    0.95000;
	215	 1	 18.33	 2.00	 0.0	 0.0	 1	    1.10779	  -11.19982	 110.0	 1	    1.12000	    0.95000;
	216	 1	 10.36	 2.00	 0.0	 0.0	 1	    1.10719	  -11.21616	 110.0	 1	    1.12000	    0.95000;
	217	 1	 15.94	 1.50	 0.0	 0.0	 1	    1.10560	  -11.39908	 110.0	 1	    1.12000	    0.95000;
	218	 1	 11.48	 3.00	 0.0	 0.0	 1	    1.07633	  -11.45564	 110.0	 1	    1.12000	    0.95000;
	219	 1	 12.75	 2.00	 0.0	 0.0	 1	    1.11683	   -6.60396	 110.0	 1	    1.12000	    0.95000;
	220	 2	 0.00	 0.00	 0.0	 0.0	 1	    1.09503	  -11.79565	 110.0	 1	    1.12000	    0.95000;
	221	 2	 9.88	 2.10	 0.0	 0.0	 1	    0.99796	   -6.74812	 110.0	 1	    1.12000	    0.95000;
	222	 1	 12.12	 1.50	 0.0	 0.0	 1	    1.09386	  -10.16648	 110.0	 1	    1.12000	    0.95000;
	223	 1	 1.12	 0.10	 0.0	 0.0	 1	    1.05722	   -4.63167	 110.0	 1	    1.12000	    0.95000;
	224	 1	 5.90	 0.20	 0.0	 0.0	 1	    1.09289	  -10.37952	 110.0	 1	    1.12000	    0.95000;
	225	 1	 4.78	 0.50	 0.0	 0.0	 1	    1.07903	  -16.29900	 110.0	 1	    1.12000	    0.95000;
	226	 1	 19.13	 1.00	 0.0	 0.0	 1	    1.09826	  -11.85220	 110.0	 1	    1.12000	    0.95000;
	227	 1	 6.69	 0.70	 0.0	 0.0	 1	    1.08885	  -11.11873	 110.0	 1	    1.12000	    0.95000;
	228	 1	 6.38	 0.70	 0.0	 0.0	 1	    1.08890	  -11.10755	 110.0	 1	    1.12000	    0.95000;
	229	 1	 3.67	 0.98	 0.0	 0.0	 1	    1.07923	   -6.49475	 110.0	 1	    1.12000	    0.95000;
	230	 1	 3.67	 0.98	 0.0	 0.0	 1	    1.05936	   -2.89649	 110.0	 1	    1.12000	    0.95000;
	231	 1	 7.97	 1.00	 0.0	 0.0	 1	    1.08747	  -11.25181	 110.0	 1	    1.12000	    0.95000;
	232	 1	 6.38	 1.00	 0.0	 0.0	 1	    1.06180	   -5.20801	 110.0	 1	    1.12000	    0.95000;
	233	 1	 13.55	 0.40	 0.0	 0.0	 1	    1.06121	   -8.54767	 110.0	 1	    1.12000	    0.95000;
	234	 1	 47.82	 28.00	 0.0	 0.0	 1	    1.04604	   -5.32783	 110.0	 1	    1.12000	    0.95000;
	235	 1	 8.77	 0.80	 0.0	 0.0	 1	    1.08690	  -12.67015	 110.0	 1	    1.12000	    0.95000;
	236	 1	 12.91	 2.94	 0.0	 0.0	 1	    1.06518	   -5.49349	 110.0	 1	    1.12000	    0.95000;
	237	 1	 8.93	 0.20	 0.0	 0.0	 1	    1.08783	  -12.71959	 110.0	 1	    1.12000	    0.95000;
	238	 1	 7.97	 0.50	 0.0	 0.0	 1	    1.08918	  -13.02784	 110.0	 1	    1.12000	    0.95000;
	239	 2	 0.00	 0.00	 0.0	 0.0	 1	    1.12000	   -9.02825	 110.0	 1	    1.12000	    0.95000;
	240	 1	 18.01	 1.00	 0.0	 0.0	 1	    1.07566	  -15.92587	 110.0	 1	    1.12000	    0.95000;
	241	 1	 5.74	 1.18	 0.0	 0.0	 1	    1.06899	   -3.52894	 110.0	 1	    1.12000	    0.95000;
	242	 1	 5.58	 0.40	 0.0	 0.0	 1	    1.08831	   -4.81774	 110.0	 1	    1.12000	    0.95000;
	243	 1	 5.58	 0.40	 0.0	 0.0	 1	    1.08834	   -4.80232	 110.0	 1	    1.12000	    0.95000;
	244	 1	 3.19	 1.10	 0.0	 0.0	 1	    1.09823	  -11.85185	 110.0	 1	    1.12000	    0.95000;
	245	 1	 0.00	 0.00	 0.0	 0.0	 1	    1.06896	   -3.18321	 110.0	 1	    1.12000	    0.95000;
	246	 2	 0.00	 5.00	 0.0	 0.0	 1	    1.05409	    0.12540	 22.0	 1	    1.12000	    0.95000;
	247	 1	 11.16	 1.00	 0.0	 0.0	 1	    1.06874	  -18.19906	 110.0	 1	    1.12000	    0.95000;
	248	 1	 2.13	 0.00	 0.0	 0.0	 1	    1.07318	  -17.98140	 110.0	 1	    1.12000	    0.95000;
	249	 1	 2.13	 0.00	 0.0	 0.0	 1	    1.07962	  -17.01152	 110.0	 1	    1.12000	    0.95000;
	250	 1	 3.99	 0.50	 0.0	 0.0	 1	    1.03279	  -22.97123	 110.0	 1	    1.12000	    0.95000;
	251	 1	 5.26	 0.10	 0.0	 0.0	 1	    1.10105	   -7.55111	 110.0	 1	    1.12000	    0.95000;
	252	 1	 17.53	 5.40	 0.0	 0.0	 1	    1.09909	   -7.17302	 110.0	 1	    1.12000	    0.95000;
	253	 1	 17.53	 4.00	 0.0	 0.0	 1	    1.08684	  -11.29316	 110.0	 1	    1.12000	    0.95000;
	254	 1	 15.14	 1.00	 0.0	 0.0	 1	    1.06972	  -18.73419	 110.0	 1	    1.12000	    0.95000;
	255	 1	 19.13	 1.50	 0.0	 0.0	 1	    1.07960	  -16.48013	 110.0	 1	    1.12000	    0.95000;
	256	 1	 4.79	 0.00	 0.0	 0.0	 1	    1.07979	  -16.63470	 110.0	 1	    1.12000	    0.95000;
	257	 1	 4.78	 0.65	 0.0	 0.0	 1	    1.06113	   -4.78583	 110.0	 1	    1.12000	    0.95000;
	258	 1	 4.78	 0.65	 0.0	 0.0	 1	    1.06111	   -4.80569	 110.0	 1	    1.12000	    0.95000;
	259	 1	 11.96	 2.47	 0.0	 0.0	 1	    1.06809	   -7.67236	 110.0	 1	    1.12000	    0.95000;
	260	 1	 4.79	 0.00	 0.0	 0.0	 1	    1.03139	  -23.40663	 110.0	 1	    1.12000	    0.95000;
	261	 1	 12.11	 1.50	 0.0	 0.0	 1	    1.09453	   -9.40632	 110.0	 1	    1.12000	    0.95000;
	262	 1	 0.00	 0.00	 0.0	 0.0	 1	    1.10018	   -9.35095	 110.0	 1	    1.12000	    0.95000;
	263	 1	 1.91	 1.00	 0.0	 0.0	 1	    1.08426	  -13.82090	 110.0	 1	    1.12000	    0.95000;
	264	 1	 38.26	 22.00	 0.0	 0.0	 1	    1.06778	   -3.27616	 110.0	 1	    1.12000	    0.95000;
	265	 1	 51.01	 30.00	 0.0	 0.0	 1	    1.05382	   -5.42923	 110.0	 1	    1.12000	    0.95000;
	266	 1	 41.44	 0.80	 0.0	 0.0	 1	    1.07113	   -3.32358	 110.0	 1	    1.12000	    0.95000;
	267	 1	 1.07	 0.00	 0.0	 0.0	 1	    1.08965	  -11.02060	 110.0	 1	    1.12000	    0.95000;
	268	 1	 14.35	 0.80	 0.0	 0.0	 1	    1.07298	  -15.13088	 110.0	 1	    1.12000	    0.95000;
	269	 1	 8.93	 2.00	 0.0	 0.0	 1	    1.10440	   -6.46471	 110.0	 1	    1.12000	    0.95000;
	270	 1	 13.55	 1.50	 0.0	 0.0	 1	    1.09545	  -12.23004	 110.0	 1	    1.12000	    0.95000;
	271	 1	 9.56	 0.50	 0.0	 0.0	 1	    1.03431	  -22.50167	 110.0	 1	    1.12000	    0.95000;
	272	 1	 11.80	 1.85	 0.0	 0.0	 1	    1.10568	   -9.55433	 110.0	 1	    1.12000	    0.95000;
	273	 1	 0.64	 0.10	 0.0	 0.0	 1	    1.07585	  -11.20243	 110.0	 1	    1.12000	    0.95000;
	274	 1	 0.32	 0.06	 0.0	 0.0	 1	    1.10634	   -7.21617	 110.0	 1	    1.12000	    0.95000;
	275	 1	 0.00	 0.00	 0.0	 0.0	 1	    1.10491	   -7.72902	 110.0	 1	    1.12000	    0.95000;
	276	 1	 17.06	 5.18	 0.0	 0.0	 1	    1.08259	   -6.77220	 110.0	 1	    1.12000	    0.95000;
	277	 1	 0.00	 0.00	 0.0	 0.0	 1	    1.07274	   -4.66858	 110.0	 1	    1.12000	    0.95000;
	278	 1	 7.97	 1.40	 0.0	 0.0	 1	    1.02304	   -6.82898	 110.0	 1	    1.12000	    0.95000;
	279	 1	 3.19	 0.50	 0.0	 0.0	 1	    1.09952	  -12.14173	 110.0	 1	    1.12000	    0.95000;
	280	 1	 7.97	 0.50	 0.0	 0.0	 1	    1.08985	  -13.11342	 110.0	 1	    1.12000	    0.95000;
	281	 1	 7.97	 1.00	 0.0	 0.0	 1	    1.10387	   -8.08321	 110.0	 1	    1.12000	    0.95000;
	282	 1	 7.97	 1.00	 0.0	 0.0	 1	    1.10601	   -9.98945	 110.0	 1	    1.12000	    0.95000;
	283	 1	 22.32	 12.00	 0.0	 0.0	 1	    1.04375	   -5.87861	 110.0	 1	    1.12000	    0.95000;
	284	 1	 55.79	 33.00	 0.0	 0.0	 1	    1.04350	   -5.88614	 110.0	 1	    1.12000	    0.95000;
	285	 1	 2.07	 0.40	 0.0	 0.0	 1	    1.07470	   -3.44218	 110.0	 1	    1.12000	    0.95000;
	286	 1	 0.00	 0.00	 0.0	 0.0	 1	    1.07010	   -3.11864	 110.0	 1	    1.12000	    0.95000;
	287	 1	 12.75	 2.90	 0.0	 0.0	 1	    1.08330	   -6.69739	 110.0	 1	    1.12000	    0.95000;
	288	 1	 11.16	 2.00	 0.0	 0.0	 1	    1.07505	   -7.68042	 110.0	 1	    1.12000	    0.95000;
	289	 1	 10.36	 0.50	 0.0	 0.0	 1	    1.07936	  -15.40801	 110.0	 1	    1.12000	    0.95000;
	290	 1	 4.79	 0.00	 0.0	 0.0	 1	    1.09544	  -13.37405	 110.0	 1	    1.12000	    0.95000;
	291	 1	 5.58	 2.50	 0.0	 0.0	 1	    1.11419	   -9.38820	 110.0	 1	    1.12000	    0.95000;
	292	 1	 3.51	 0.20	 0.0	 0.0	 1	    1.02132	   -2.73744	 110.0	 1	    1.12000	    0.95000;
	293	 1	 17.06	 4.10	 0.0	 0.0	 1	    1.10687	   -9.88407	 110.0	 1	    1.12000	    0.95000;
	294	 1	 12.43	 1.50	 0.0	 0.0	 1	    1.09945	   -8.56353	 110.0	 1	    1.12000	    0.95000;
	295	 1	 7.33	 1.51	 0.0	 0.0	 1	    1.08578	   -6.47859	 110.0	 1	    1.12000	    0.95000;
	296	 1	 2.55	 1.40	 0.0	 0.0	 1	    1.10934	   -7.94864	 110.0	 1	    1.12000	    0.95000;
	297	 1	 6.85	 0.50	 0.0	 0.0	 1	    1.06743	  -15.10079	 110.0	 1	    1.12000	    0.95000;
	298	 1	 11.48	 0.80	 0.0	 0.0	 1	    1.02268	   -2.95025	 110.0	 1	    1.12000	    0.95000;
	299	 1	 6.38	 0.70	 0.0	 0.0	 1	    1.04035	   -5.38006	 110.0	 1	    1.12000	    0.95000;
	300	 1	 9.25	 2.11	 0.0	 0.0	 1	    1.07317	   -6.59495	 110.0	 1	    1.12000	    0.95000;
	301	 1	 12.27	 2.53	 0.0	 0.0	 1	    1.05851	   -2.97816	 110.0	 1	    1.12000	    0.95000;
	302	 1	 12.75	 0.50	 0.0	 0.0	 1	    1.10372	  -11.99690	 110.0	 1	    1.12000	    0.95000;
	303	 1	 0.00	 0.00	 0.0	 0.0	 1	    1.07300	   -4.67274	 110.0	 1	    1.12000	    0.95000;
	304	 1	 6.06	 1.50	 0.0	 0.0	 1	    1.05194	   -5.57985	 110.0	 1	    1.12000	    0.95000;
	305	 1	 11.96	 2.72	 0.0	 0.0	 1	    1.08581	   -6.47306	 110.0	 1	    1.12000	    0.95000;
	306	 1	 11.64	 2.40	 0.0	 0.0	 1	    1.06892	   -3.62976	 110.0	 1	    1.12000	    0.95000;
	307	 1	 20.56	 4.24	 0.0	 0.0	 1	    1.08140	   -6.96727	 110.0	 1	    1.12000	    0.95000;
	308	 1	 18.33	 3.78	 0.0	 0.0	 1	    1.07490	   -6.70812	 110.0	 1	    1.12000	    0.95000;
	309	 2	 21.16	 9.05	 0.0	 0.0	 1	    1.06060	   -6.16379	 110.0	 1	    1.12000	    0.95000;
	310	 2	 17.59	 7.00	 0.0	 0.0	 1	    1.07707	   -6.67312	 110.0	 1	    1.12000	    0.95000;
	311	 2	 23.30	 8.30	 0.0	 0.0	 1	    1.07053	   -2.51445	 110.0	 1	    1.12000	    0.95000;
	312	 1	 0.00	 0.00	 0.0	 0.0	 1	    1.07380	   -6.63659	 110.0	 1	    1.12000	    0.95000;
	313	 2	 15.49	 5.48	 0.0	 0.0	 1	    1.08206	   -6.92889	 110.0	 1	    1.12000	    0.95000;
	314	 2	 9.25	 5.15	 0.0	 0.0	 1	    1.06580	   -5.35678	 110.0	 1	    1.12000	    0.95000;
	315	 1	 12.75	 1.20	 0.0	 0.0	 1	    1.03129	   -2.51970	 110.0	 1	    1.12000	    0.95000;
	316	 1	 3.19	 0.50	 0.0	 0.0	 1	    1.09879	  -12.08035	 110.0	 1	    1.12000	    0.95000;