%%%%%%%%%%%%%%%%%%%%%%%%%%%%%%%%%%%%%%%%%%%%%%%%%%%%%%%%%%%%%%%%%%%%%%%%%%%
%%%%                                                                  %%%%%
%%%%    IEEE PES Power Grid Library - Optimal Power Flow - v17.07     %%%%%
%%%%          (https://github.com/power-grid-lib/pglib-opf)           %%%%%
%%%%             Benchmark Group - Active Power Increase              %%%%%
%%%%                         27 - June - 2017                         %%%%%
%%%%                                                                  %%%%%
%%%%%%%%%%%%%%%%%%%%%%%%%%%%%%%%%%%%%%%%%%%%%%%%%%%%%%%%%%%%%%%%%%%%%%%%%%%
function mpc = pglib_opf_case3012wp_mp__api
mpc.version = '2';
mpc.baseMVA = 100.0;

%% area data
%	area	refbus
mpc.areas = [
	1	 1;
];

%% bus data
%	bus_i	type	Pd	Qd	Gs	Bs	area	Vm	Va	baseKV	zone	Vmax	Vmin
mpc.bus = [
	1	 1	 0.00	 0.00	 0.0	 0.0	 1	    1.09848	   -0.26653	 220.0	 1	    1.11000	    0.95000;
	2	 1	 0.00	 0.00	 0.0	 0.0	 1	    1.10768	    3.45670	 220.0	 1	    1.11000	    0.95000;
	3	 1	 0.00	 0.00	 0.0	 0.0	 1	    1.06688	  -23.26144	 220.0	 1	    1.11000	    0.95000;
	4	 1	 0.00	 0.00	 0.0	 0.0	 1	    1.06681	  -23.27140	 220.0	 1	    1.11000	    0.95000;
	5	 1	 0.00	 0.00	 0.0	 0.0	 1	    1.07886	  -26.06559	 220.0	 1	    1.11000	    0.95000;
	6	 1	 0.00	 0.00	 0.0	 0.0	 1	    1.07820	   -2.67942	 220.0	 1	    1.11000	    0.95000;
	7	 1	 0.00	 0.00	 0.0	 0.0	 1	    1.07816	   -2.67946	 220.0	 1	    1.11000	    0.95000;
	8	 1	 0.00	 0.00	 0.0	 0.0	 1	    1.09091	  -11.91004	 220.0	 1	    1.11000	    0.95000;
	9	 1	 0.00	 0.00	 0.0	 0.0	 1	    1.09118	  -11.89132	 220.0	 1	    1.11000	    0.95000;
	10	 1	 0.00	 0.00	 0.0	 0.0	 1	    1.10200	  -15.85557	 220.0	 1	    1.11000	    0.95000;
	11	 1	 0.00	 0.00	 0.0	 0.0	 1	    1.02691	   -6.96398	 400.0	 1	    1.05000	    0.95000;
	12	 1	 0.00	 0.00	 0.0	 0.0	 1	    1.02698	   -6.95001	 400.0	 1	    1.05000	    0.95000;
	13	 1	 0.00	 0.00	 0.0	 0.0	 1	    1.01380	  -11.47938	 400.0	 1	    1.05000	    0.95000;
	14	 1	 0.00	 0.00	 0.0	 0.0	 1	    1.04373	  -11.67938	 220.0	 1	    1.11000	    0.95000;
	15	 1	 0.00	 0.00	 0.0	 0.0	 1	    1.04389	  -11.67233	 220.0	 1	    1.11000	    0.95000;
	16	 1	 0.00	 0.00	 0.0	 0.0	 1	    1.04388	  -11.65650	 220.0	 1	    1.11000	    0.95000;
	17	 1	 0.00	 0.00	 0.0	 0.0	 1	    1.03711	  -16.93864	 220.0	 1	    1.11000	    0.95000;
	18	 1	 0.00	 0.00	 0.0	 0.0	 1	    1.03460	  -17.03568	 220.0	 1	    1.11000	    0.95000;
	19	 1	 0.00	 0.00	 0.0	 0.0	 1	    1.03136	   -6.44187	 400.0	 1	    1.05000	    0.95000;
	20	 1	 0.00	 0.00	 0.0	 0.0	 1	    1.03140	   -6.43252	 400.0	 1	    1.05000	    0.95000;
	21	 1	 0.00	 0.00	 0.0	 0.0	 1	    1.02521	  -15.57113	 400.0	 1	    1.05000	    0.95000;
	22	 1	 0.00	 0.00	 0.0	 0.0	 1	    1.01894	  -11.13438	 400.0	 1	    1.05000	    0.95000;
	23	 1	 0.00	 0.00	 0.0	 0.0	 1	    1.01894	  -11.13438	 400.0	 1	    1.05000	    0.95000;
	24	 2	 11.59	 20.10	 0.0	 0.0	 1	    1.09237	  -16.77856	 220.0	 1	    1.11000	    0.95000;
	25	 2	 11.59	 20.10	 0.0	 0.0	 1	    1.09237	  -16.76539	 220.0	 1	    1.11000	    0.95000;
	26	 1	 0.00	 0.00	 0.0	 0.0	 1	    1.08778	   -1.52540	 220.0	 1	    1.11000	    0.95000;
	27	 1	 0.00	 0.00	 0.0	 0.0	 1	    1.08788	   -1.52960	 220.0	 1	    1.11000	    0.95000;
	28	 1	 0.00	 0.00	 0.0	 0.0	 1	    1.03794	  -12.62186	 220.0	 1	    1.11000	    0.95000;
	29	 1	 0.00	 0.00	 0.0	 0.0	 1	    1.03790	  -12.62062	 220.0	 1	    1.11000	    0.95000;
	30	 1	 0.00	 0.00	 0.0	 0.0	 1	    1.04120	  -11.03080	 220.0	 1	    1.11000	    0.95000;
	31	 1	 0.00	 0.00	 0.0	 0.0	 1	    1.04116	  -11.04764	 220.0	 1	    1.11000	    0.95000;
	32	 1	 0.00	 0.00	 0.0	 0.0	 1	    1.08752	   -0.16373	 220.0	 1	    1.11000	    0.95000;
	33	 1	 0.00	 0.00	 0.0	 0.0	 1	    1.08742	   -0.18465	 220.0	 1	    1.11000	    0.95000;
	34	 1	 0.00	 0.00	 0.0	 0.0	 1	    1.03089	   -8.59431	 400.0	 1	    1.05000	    0.95000;
	35	 1	 0.00	 0.00	 0.0	 0.0	 1	    1.03085	   -8.59771	 400.0	 1	    1.05000	    0.95000;
	36	 1	 0.00	 0.00	 0.0	 0.0	 1	    1.01262	  -10.85799	 400.0	 1	    1.05000	    0.95000;
	37	 3	 56.13	 86.21	 0.0	 0.0	 1	    1.10081	   -0.00000	 220.0	 1	    1.11000	    0.95000;
	38	 2	 62.89	 89.93	 0.0	 0.0	 1	    1.11000	    3.94474	 220.0	 1	    1.11000	    0.95000;
	39	 2	 23.18	 40.19	 0.0	 0.0	 1	    1.10999	    3.91477	 220.0	 1	    1.11000	    0.95000;
	40	 2	 69.52	 120.57	 0.0	 0.0	 1	    1.04751	    1.42936	 400.0	 1	    1.05000	    0.95000;
	41	 2	 69.52	 120.57	 0.0	 0.0	 1	    1.04753	    1.43333	 400.0	 1	    1.05000	    0.95000;
	42	 1	 0.00	 0.00	 0.0	 0.0	 1	    1.03150	  -12.08662	 220.0	 1	    1.11000	    0.95000;
	43	 1	 0.00	 0.00	 0.0	 0.0	 1	    1.03141	  -12.09746	 220.0	 1	    1.11000	    0.95000;
	44	 1	 0.00	 0.00	 0.0	 0.0	 1	    1.05000	   -0.14894	 400.0	 1	    1.05000	    0.95000;
	45	 1	 0.00	 0.00	 0.0	 0.0	 1	    1.04999	   -0.15183	 400.0	 1	    1.05000	    0.95000;
	46	 1	 0.00	 0.00	 0.0	 0.0	 1	    1.04056	  -11.99416	 220.0	 1	    1.11000	    0.95000;
	47	 1	 0.00	 0.00	 0.0	 0.0	 1	    1.06395	   -3.26179	 220.0	 1	    1.11000	    0.95000;
	48	 1	 0.00	 0.00	 0.0	 0.0	 1	    1.06396	   -3.25890	 220.0	 1	    1.11000	    0.95000;
	49	 1	 0.00	 0.00	 0.0	 0.0	 1	    1.09672	   -2.86021	 220.0	 2	    1.11000	    0.95000;
	50	 1	 0.00	 0.00	 0.0	 0.0	 1	    1.09238	   -4.17073	 220.0	 2	    1.11000	    0.95000;
	51	 1	 0.00	 0.00	 0.0	 0.0	 1	    1.10602	   -2.25300	 220.0	 2	    1.11000	    0.95000;
	52	 1	 0.00	 0.00	 0.0	 0.0	 1	    1.10598	   -2.26069	 220.0	 2	    1.11000	    0.95000;
	53	 1	 0.00	 0.00	 0.0	 0.0	 1	    1.07655	   -3.55142	 220.0	 2	    1.11000	    0.95000;
	54	 1	 3.72	 1.00	 0.0	 0.0	 1	    1.09873	   -3.58788	 220.0	 2	    1.11000	    0.95000;
	55	 1	 0.00	 0.00	 0.0	 0.0	 1	    1.09879	   -3.58388	 220.0	 2	    1.11000	    0.95000;
	56	 1	 0.00	 0.00	 0.0	 0.0	 1	    1.03398	   -3.00207	 400.0	 2	    1.05000	    0.95000;
	57	 2	 30.12	 60.29	 0.0	 0.0	 1	    1.10999	   -1.50940	 220.0	 2	    1.11000	    0.95000;
	58	 2	 62.57	 120.57	 0.0	 0.0	 1	    1.10995	   -1.52277	 220.0	 2	    1.11000	    0.95000;
	59	 2	 15.06	 30.14	 0.0	 0.0	 1	    1.11000	   -1.51403	 220.0	 2	    1.11000	    0.95000;
	60	 2	 30.12	 50.24	 0.0	 0.0	 1	    1.04307	   -1.03882	 400.0	 2	    1.05000	    0.95000;
	61	 2	 30.12	 50.24	 0.0	 0.0	 1	    1.04312	   -1.02264	 400.0	 2	    1.05000	    0.95000;
	62	 1	 0.00	 0.00	 0.0	 0.0	 1	    1.09265	   -4.40288	 220.0	 2	    1.11000	    0.95000;
	63	 1	 0.00	 0.00	 0.0	 0.0	 1	    1.04737	   -6.76579	 400.0	 2	    1.05000	    0.95000;
	64	 1	 0.00	 0.00	 0.0	 0.0	 1	    1.04737	   -6.76545	 400.0	 2	    1.05000	    0.95000;
	65	 1	 0.00	 0.00	 0.0	 0.0	 1	    1.04321	   -2.07027	 400.0	 2	    1.05000	    0.95000;
	66	 1	 0.00	 0.00	 0.0	 0.0	 1	    1.08147	   -2.08927	 220.0	 2	    1.11000	    0.95000;
	67	 1	 0.00	 0.00	 0.0	 0.0	 1	    1.08144	   -2.08084	 220.0	 2	    1.11000	    0.95000;
	68	 1	 0.00	 0.00	 0.0	 0.0	 1	    1.04134	   -2.55693	 400.0	 2	    1.05000	    0.95000;
	69	 1	 0.00	 0.00	 0.0	 0.0	 1	    1.04133	   -2.55962	 400.0	 2	    1.05000	    0.95000;
	70	 2	 15.06	 30.14	 0.0	 0.0	 1	    1.11000	   -1.65406	 220.0	 2	    1.11000	    0.95000;
	71	 2	 15.06	 30.14	 0.0	 0.0	 1	    1.10997	   -1.66213	 220.0	 2	    1.11000	    0.95000;
	72	 2	 15.06	 30.14	 0.0	 0.0	 1	    1.04093	   -2.32562	 400.0	 2	    1.05000	    0.95000;
	73	 2	 30.12	 60.29	 0.0	 0.0	 1	    1.04092	   -2.32630	 400.0	 2	    1.05000	    0.95000;
	74	 2	 172.63	 60.29	 0.0	 0.0	 1	    1.10418	   -3.28729	 220.0	 2	    1.11000	    0.95000;
	75	 1	 33.60	 10.05	 0.0	 0.0	 1	    1.10416	   -3.27887	 220.0	 2	    1.11000	    0.95000;
	76	 1	 0.00	 0.00	 0.0	 0.0	 1	    1.09515	   -4.31975	 220.0	 2	    1.11000	    0.95000;
	77	 1	 0.00	 0.00	 0.0	 0.0	 1	    1.09516	   -4.31977	 220.0	 2	    1.11000	    0.95000;
	78	 1	 0.00	 0.00	 0.0	 0.0	 1	    1.10125	   -3.64250	 220.0	 2	    1.11000	    0.95000;
	79	 1	 0.00	 0.00	 0.0	 0.0	 1	    1.10127	   -3.64198	 220.0	 2	    1.11000	    0.95000;
	80	 1	 0.00	 0.00	 0.0	 0.0	 1	    1.05000	   -4.40949	 400.0	 2	    1.05000	    0.95000;
	81	 1	 0.00	 0.00	 0.0	 0.0	 1	    1.04998	   -4.42037	 400.0	 2	    1.05000	    0.95000;
	82	 1	 0.00	 0.00	 0.0	 0.0	 1	    1.10533	   -1.52926	 220.0	 2	    1.11000	    0.95000;
	83	 1	 0.00	 0.00	 0.0	 0.0	 1	    1.10525	   -1.82096	 220.0	 2	    1.11000	    0.95000;
	84	 1	 0.00	 0.00	 0.0	 0.0	 1	    1.08152	   -0.68167	 220.0	 2	    1.11000	    0.95000;
	85	 1	 0.00	 0.00	 0.0	 0.0	 1	    1.08738	   -1.56525	 220.0	 3	    1.11000	    0.95000;
	86	 1	 9.35	 0.00	 0.0	 0.0	 1	    1.09547	   -2.56999	 220.0	 3	    1.11000	    0.95000;
	87	 1	 8.18	 0.00	 0.0	 0.0	 1	    1.09549	   -2.56589	 220.0	 3	    1.11000	    0.95000;
	88	 1	 0.00	 0.00	 0.0	 0.0	 1	    1.09364	    2.97794	 220.0	 3	    1.11000	    0.95000;
	89	 1	 0.00	 0.00	 0.0	 0.0	 1	    1.09378	    2.99610	 220.0	 3	    1.11000	    0.95000;
	90	 1	 0.00	 0.00	 0.0	 0.0	 1	    1.09775	   -0.78272	 220.0	 3	    1.11000	    0.95000;
	91	 1	 0.00	 0.00	 0.0	 0.0	 1	    1.09780	   -0.78313	 220.0	 3	    1.11000	    0.95000;
	92	 1	 0.00	 0.00	 0.0	 0.0	 1	    1.06414	    0.78780	 220.0	 3	    1.11000	    0.95000;
	93	 1	 0.00	 0.00	 0.0	 0.0	 1	    1.06393	    0.78543	 220.0	 3	    1.11000	    0.95000;
	94	 2	 32.44	 70.33	 0.0	 0.0	 1	    1.10481	    4.17696	 220.0	 3	    1.11000	    0.95000;
	95	 2	 48.66	 103.49	 0.0	 0.0	 1	    1.09880	    3.41779	 220.0	 3	    1.11000	    0.95000;
	96	 1	 7.72	 -24.99	 0.0	 0.0	 1	    1.08765	    1.64737	 220.0	 3	    1.11000	    0.95000;
	97	 1	 0.00	 0.00	 0.0	 0.0	 1	    1.08764	    1.65308	 220.0	 3	    1.11000	    0.95000;
	98	 2	 37.07	 142.68	 0.0	 0.0	 1	    1.05000	   -3.31022	 400.0	 3	    1.05000	    0.95000;
	99	 1	 0.00	 0.00	 0.0	 0.0	 1	    1.04995	   -3.32841	 400.0	 3	    1.05000	    0.95000;
	100	 1	 0.00	 0.00	 0.0	 0.0	 1	    1.05723	   -7.23706	 220.0	 3	    1.11000	    0.95000;
	101	 1	 0.00	 0.00	 0.0	 0.0	 1	    1.08160	    1.11181	 220.0	 3	    1.11000	    0.95000;
	102	 1	 0.00	 0.00	 0.0	 0.0	 1	    1.08171	    1.12918	 220.0	 3	    1.11000	    0.95000;
	103	 1	 52.02	 7.94	 0.0	 0.0	 1	    1.08970	   -1.29525	 220.0	 3	    1.11000	    0.95000;
	104	 1	 0.00	 0.00	 0.0	 0.0	 1	    1.08962	   -1.30003	 220.0	 3	    1.11000	    0.95000;
	105	 1	 0.00	 0.00	 0.0	 0.0	 1	    1.09517	    1.89869	 220.0	 3	    1.11000	    0.95000;
	106	 1	 0.00	 0.00	 0.0	 0.0	 1	    1.09511	    1.90533	 220.0	 3	    1.11000	    0.95000;
	107	 1	 0.00	 0.00	 0.0	 0.0	 1	    1.09506	   -0.83593	 220.0	 3	    1.11000	    0.95000;
	108	 1	 0.00	 0.00	 0.0	 0.0	 1	    1.09505	   -0.83770	 220.0	 3	    1.11000	    0.95000;
	109	 1	 0.00	 0.00	 0.0	 0.0	 1	    1.04280	   -0.02882	 400.0	 3	    1.05000	    0.95000;
	110	 1	 0.00	 0.00	 0.0	 0.0	 1	    1.04281	   -0.03112	 400.0	 3	    1.05000	    0.95000;
	111	 1	 0.00	 0.00	 0.0	 0.0	 1	    1.08583	    1.35022	 220.0	 3	    1.11000	    0.95000;
	112	 1	 0.00	 0.00	 0.0	 0.0	 1	    1.08569	    1.35034	 220.0	 3	    1.11000	    0.95000;
	113	 1	 0.00	 0.00	 0.0	 0.0	 1	    1.06959	   -3.19200	 220.0	 3	    1.11000	    0.95000;
	114	 1	 0.00	 0.00	 0.0	 0.0	 1	    1.06954	   -3.21221	 220.0	 3	    1.11000	    0.95000;
	115	 2	 33.85	 18.51	 0.0	 0.0	 1	    1.09908	    1.27032	 220.0	 3	    1.11000	    0.95000;
	116	 1	 0.00	 0.00	 0.0	 0.0	 1	    1.09902	    1.25585	 220.0	 3	    1.11000	    0.95000;
	117	 1	 0.00	 0.00	 0.0	 0.0	 1	    1.09553	   -2.54667	 220.0	 3	    1.11000	    0.95000;
	118	 1	 0.00	 0.00	 0.0	 0.0	 1	    1.09552	   -2.54805	 220.0	 3	    1.11000	    0.95000;
	119	 1	 0.00	 0.00	 0.0	 0.0	 1	    1.05260	    0.68786	 220.0	 3	    1.11000	    0.95000;
	120	 1	 0.00	 0.00	 0.0	 0.0	 1	    1.05261	    0.69117	 220.0	 3	    1.11000	    0.95000;
	121	 2	 0.00	 0.00	 0.0	 0.0	 1	    1.07884	    1.06484	 220.0	 3	    1.11000	    0.95000;
	122	 2	 11.59	 44.21	 0.0	 0.0	 1	    1.07869	    1.06684	 220.0	 3	    1.11000	    0.95000;
	123	 2	 8.11	 18.09	 0.0	 0.0	 1	    1.09730	    1.84658	 220.0	 3	    1.11000	    0.95000;
	124	 2	 9.27	 21.10	 0.0	 0.0	 1	    1.09725	    1.84551	 220.0	 3	    1.11000	    0.95000;
	125	 1	 0.00	 0.00	 0.0	 0.0	 1	    1.09014	   -0.38222	 220.0	 3	    1.11000	    0.95000;
	126	 1	 82.49	 7.94	 0.0	 0.0	 1	    1.09022	   -0.38400	 220.0	 3	    1.11000	    0.95000;
	127	 1	 0.00	 0.00	 0.0	 0.0	 1	    1.06162	   -0.33305	 220.0	 3	    1.11000	    0.95000;
	128	 1	 0.00	 0.00	 0.0	 0.0	 1	    1.07762	    0.75371	 220.0	 3	    1.11000	    0.95000;
	129	 1	 0.00	 0.00	 0.0	 0.0	 1	    1.07767	    0.75840	 220.0	 3	    1.11000	    0.95000;
	130	 1	 0.00	 0.00	 0.0	 0.0	 1	    1.08708	    2.05594	 220.0	 3	    1.11000	    0.95000;
	131	 1	 0.00	 0.00	 0.0	 0.0	 1	    1.08719	    2.07238	 220.0	 3	    1.11000	    0.95000;
	132	 1	 0.00	 0.00	 0.0	 0.0	 1	    1.04100	   -3.13303	 400.0	 3	    1.05000	    0.95000;
	133	 1	 0.00	 0.00	 0.0	 0.0	 1	    1.04100	   -3.13303	 400.0	 3	    1.05000	    0.95000;
	134	 2	 0.00	 0.00	 0.0	 0.0	 1	    1.09762	    2.30414	 220.0	 3	    1.11000	    0.95000;
	135	 2	 10.42	 20.10	 0.0	 0.0	 1	    1.09763	    2.30803	 220.0	 3	    1.11000	    0.95000;
	136	 2	 6.95	 15.07	 0.0	 0.0	 1	    1.08456	    0.79758	 220.0	 3	    1.11000	    0.95000;
	137	 1	 0.00	 0.00	 0.0	 0.0	 1	    1.08449	    0.79422	 220.0	 3	    1.11000	    0.95000;
	138	 1	 0.00	 0.00	 0.0	 0.0	 1	    1.04865	   -4.58345	 400.0	 3	    1.05000	    0.95000;
	139	 1	 0.00	 0.00	 0.0	 0.0	 1	    1.04868	   -4.58992	 400.0	 3	    1.05000	    0.95000;
	140	 1	 0.00	 0.00	 0.0	 0.0	 1	    1.04999	   -2.82279	 400.0	 3	    1.05000	    0.95000;
	141	 1	 0.00	 0.00	 0.0	 0.0	 1	    1.05000	   -2.81846	 400.0	 3	    1.05000	    0.95000;
	142	 1	 0.00	 0.00	 0.0	 0.0	 1	    1.05923	   -0.56721	 220.0	 3	    1.11000	    0.95000;
	143	 1	 0.00	 0.00	 0.0	 0.0	 1	    1.05932	   -0.56256	 220.0	 3	    1.11000	    0.95000;
	144	 2	 21.15	 15.86	 0.0	 0.0	 1	    1.08509	    0.35994	 220.0	 3	    1.11000	    0.95000;
	145	 2	 47.29	 43.07	 0.0	 0.0	 1	    1.08526	    0.38468	 220.0	 3	    1.11000	    0.95000;
	146	 2	 32.44	 66.31	 0.0	 0.0	 1	    1.04511	   -2.80614	 400.0	 3	    1.05000	    0.95000;
	147	 1	 0.00	 0.00	 0.0	 0.0	 1	    1.04505	   -2.80253	 400.0	 3	    1.05000	    0.95000;
	148	 1	 0.00	 0.00	 0.0	 0.0	 1	    1.08790	   -1.39163	 220.0	 3	    1.11000	    0.95000;
	149	 1	 0.00	 0.00	 0.0	 0.0	 1	    1.08796	   -1.38339	 220.0	 3	    1.11000	    0.95000;
	150	 1	 0.00	 0.00	 0.0	 0.0	 1	    1.09289	    2.24785	 220.0	 3	    1.11000	    0.95000;
	151	 1	 0.00	 0.00	 0.0	 0.0	 1	    1.09173	   -0.93947	 220.0	 3	    1.11000	    0.95000;
	152	 2	 0.00	 0.00	 0.0	 0.0	 1	    1.06417	    0.78757	 220.0	 3	    1.11000	    0.95000;
	153	 2	 0.00	 0.00	 0.0	 0.0	 1	    1.06396	    0.78520	 220.0	 3	    1.11000	    0.95000;
	154	 2	 9.04	 20.10	 0.0	 0.0	 1	    1.09664	   -2.55370	 220.0	 4	    1.11000	    0.95000;
	155	 2	 9.27	 20.10	 0.0	 0.0	 1	    1.09660	   -2.56548	 220.0	 4	    1.11000	    0.95000;
	156	 1	 0.00	 0.00	 0.0	 0.0	 1	    1.08529	  -10.63542	 220.0	 4	    1.11000	    0.95000;
	157	 1	 0.00	 0.00	 0.0	 0.0	 1	    1.08525	  -10.63921	 220.0	 4	    1.11000	    0.95000;
	158	 1	 0.00	 0.00	 0.0	 0.0	 1	    1.07407	  -11.98608	 220.0	 4	    1.11000	    0.95000;
	159	 1	 0.00	 0.00	 0.0	 0.0	 1	    1.09922	   -8.62072	 220.0	 4	    1.11000	    0.95000;
	160	 1	 0.00	 0.00	 0.0	 0.0	 1	    1.09916	   -8.63171	 220.0	 4	    1.11000	    0.95000;
	161	 1	 0.00	 0.00	 0.0	 0.0	 1	    1.04026	   -7.64311	 400.0	 4	    1.05000	    0.95000;
	162	 1	 0.00	 0.00	 0.0	 0.0	 1	    1.04024	   -7.64816	 400.0	 4	    1.05000	    0.95000;
	163	 1	 0.00	 0.00	 0.0	 0.0	 1	    1.05259	  -12.95120	 220.0	 4	    1.11000	    0.95000;
	164	 1	 0.00	 0.00	 0.0	 0.0	 1	    1.09960	  -16.56909	 220.0	 4	    1.11000	    0.95000;
	165	 1	 0.00	 0.00	 0.0	 0.0	 1	    1.09960	  -16.56909	 220.0	 4	    1.11000	    0.95000;
	166	 1	 0.00	 0.00	 0.0	 0.0	 1	    1.10462	  -14.93935	 220.0	 4	    1.11000	    0.95000;
	167	 1	 0.00	 0.00	 0.0	 0.0	 1	    1.10462	  -14.93935	 220.0	 4	    1.11000	    0.95000;
	168	 1	 0.00	 0.00	 0.0	 0.0	 1	    1.07332	  -12.10768	 220.0	 4	    1.11000	    0.95000;
	169	 2	 0.00	 0.00	 0.0	 0.0	 1	    1.08535	   -5.96796	 220.0	 4	    1.11000	    0.95000;
	170	 2	 0.00	 0.00	 0.0	 0.0	 1	    1.08541	   -5.97364	 220.0	 4	    1.11000	    0.95000;
	171	 1	 0.00	 0.00	 0.0	 0.0	 1	    1.10999	   -3.89572	 220.0	 4	    1.11000	    0.95000;
	172	 2	 13.91	 30.14	 0.0	 0.0	 1	    1.10592	  -14.41576	 220.0	 4	    1.11000	    0.95000;
	173	 2	 10.83	 2.43	 0.0	 0.0	 1	    1.10575	  -14.41462	 220.0	 4	    1.11000	    0.95000;
	174	 2	 13.91	 30.14	 0.0	 0.0	 1	    1.01575	  -11.28237	 400.0	 4	    1.05000	    0.95000;
	175	 2	 27.80	 60.29	 0.0	 0.0	 1	    1.01578	  -11.27499	 400.0	 4	    1.05000	    0.95000;
	176	 1	 0.00	 0.00	 0.0	 0.0	 1	    1.03588	  -13.93885	 220.0	 4	    1.11000	    0.95000;
	177	 1	 0.00	 0.00	 0.0	 0.0	 1	    1.03594	  -13.93893	 220.0	 4	    1.11000	    0.95000;
	178	 1	 0.00	 0.00	 0.0	 0.0	 1	    1.08215	  -11.72476	 220.0	 4	    1.11000	    0.95000;
	179	 1	 0.00	 0.00	 0.0	 0.0	 1	    1.08218	  -11.72737	 220.0	 4	    1.11000	    0.95000;
	180	 2	 30.12	 64.30	 0.0	 0.0	 1	    1.10999	   -5.19322	 220.0	 4	    1.11000	    0.95000;
	181	 2	 30.12	 64.30	 0.0	 0.0	 1	    1.11000	   -5.18468	 220.0	 4	    1.11000	    0.95000;
	182	 2	 30.12	 64.51	 0.0	 0.0	 1	    1.11000	   -5.18426	 220.0	 4	    1.11000	    0.95000;
	183	 2	 30.12	 64.51	 0.0	 0.0	 1	    1.05000	   -3.00393	 400.0	 4	    1.05000	    0.95000;
	184	 1	 0.00	 0.00	 0.0	 0.0	 1	    1.04994	   -3.00912	 400.0	 4	    1.05000	    0.95000;
	185	 1	 0.00	 0.00	 0.0	 0.0	 1	    1.10150	  -16.39638	 220.0	 4	    1.11000	    0.95000;
	186	 1	 0.00	 0.00	 0.0	 0.0	 1	    1.10150	  -16.39638	 220.0	 4	    1.11000	    0.95000;
	187	 1	 0.00	 0.00	 0.0	 0.0	 1	    1.03030	   -9.43448	 400.0	 4	    1.05000	    0.95000;
	188	 1	 0.00	 0.00	 0.0	 0.0	 1	    1.00971	  -14.07923	 400.0	 4	    1.05000	    0.95000;
	189	 1	 0.00	 0.00	 0.0	 0.0	 1	    1.03825	   -7.81467	 400.0	 4	    1.05000	    0.95000;
	190	 1	 0.00	 0.00	 0.0	 0.0	 1	    1.03825	   -7.81139	 400.0	 4	    1.05000	    0.95000;
	191	 2	 13.91	 30.14	 0.0	 0.0	 1	    1.08714	   -6.00343	 220.0	 4	    1.11000	    0.95000;
	192	 2	 16.90	 30.65	 0.0	 0.0	 1	    1.08722	   -6.01607	 220.0	 4	    1.11000	    0.95000;
	193	 2	 44.02	 64.30	 0.0	 0.0	 1	    1.00489	   -0.35719	 400.0	 4	    1.05000	    0.95000;
	194	 1	 0.00	 0.00	 0.0	 0.0	 1	    1.03496	  -18.48870	 220.0	 4	    1.11000	    0.95000;
	195	 1	 0.00	 0.00	 0.0	 0.0	 1	    1.03498	  -18.49128	 220.0	 4	    1.11000	    0.95000;
	196	 1	 0.00	 0.00	 0.0	 0.0	 1	    1.10048	  -16.71120	 220.0	 4	    1.11000	    0.95000;
	197	 1	 0.00	 0.00	 0.0	 0.0	 1	    1.10050	  -16.71259	 220.0	 4	    1.11000	    0.95000;
	198	 1	 0.00	 0.00	 0.0	 0.0	 1	    1.04914	  -14.00224	 220.0	 4	    1.11000	    0.95000;
	199	 1	 0.00	 0.00	 0.0	 0.0	 1	    1.04915	  -14.00155	 220.0	 4	    1.11000	    0.95000;
	200	 1	 0.00	 0.00	 0.0	 0.0	 1	    0.99505	  -14.14103	 400.0	 4	    1.05000	    0.95000;
	201	 1	 0.00	 0.00	 0.0	 0.0	 1	    0.99505	  -14.14103	 400.0	 4	    1.05000	    0.95000;
	202	 1	 0.00	 0.00	 0.0	 0.0	 1	    1.05330	  -12.33324	 220.0	 4	    1.11000	    0.95000;
	203	 1	 0.00	 0.00	 0.0	 0.0	 1	    1.05329	  -12.32754	 220.0	 4	    1.11000	    0.95000;
	204	 1	 0.00	 0.00	 0.0	 0.0	 1	    1.03931	  -14.47332	 220.0	 4	    1.11000	    0.95000;
	205	 1	 0.00	 0.00	 0.0	 0.0	 1	    1.08348	  -10.37363	 220.0	 4	    1.11000	    0.95000;
	206	 1	 0.00	 0.00	 0.0	 0.0	 1	    1.08351	  -10.37914	 220.0	 4	    1.11000	    0.95000;
	207	 1	 0.00	 0.00	 0.0	 0.0	 1	    1.07224	  -10.29054	 220.0	 4	    1.11000	    0.95000;
	208	 2	 3.62	 1.51	 0.0	 0.0	 1	    1.09525	  -10.47949	 220.0	 4	    1.11000	    0.95000;
	209	 1	 0.00	 0.00	 0.0	 0.0	 1	    1.04527	  -13.22567	 220.0	 4	    1.11000	    0.95000;
	210	 1	 0.00	 0.00	 0.0	 0.0	 1	    1.04524	  -13.22153	 220.0	 4	    1.11000	    0.95000;
	211	 1	 0.00	 0.00	 0.0	 0.0	 1	    1.04547	  -14.33615	 220.0	 5	    1.11000	    0.95000;
	212	 1	 0.00	 0.00	 0.0	 0.0	 1	    1.11000	  -15.28535	 220.0	 5	    1.11000	    0.95000;
	213	 1	 0.00	 0.00	 0.0	 0.0	 1	    1.02810	  -15.14443	 400.0	 5	    1.05000	    0.95000;
	214	 1	 0.00	 0.00	 0.0	 0.0	 1	    1.02812	  -15.13847	 400.0	 5	    1.05000	    0.95000;
	215	 1	 0.00	 0.00	 0.0	 0.0	 1	    1.02975	  -18.66678	 400.0	 5	    1.05000	    0.95000;
	216	 1	 0.00	 0.00	 0.0	 0.0	 1	    1.02975	  -18.67405	 400.0	 5	    1.05000	    0.95000;
	217	 1	 0.00	 0.00	 0.0	 0.0	 1	    1.03956	  -21.46139	 400.0	 5	    1.05000	    0.95000;
	218	 1	 0.00	 0.00	 0.0	 0.0	 1	    1.02680	  -19.36324	 220.0	 5	    1.11000	    0.95000;
	219	 1	 0.00	 0.00	 0.0	 0.0	 1	    1.02679	  -19.36410	 220.0	 5	    1.11000	    0.95000;
	220	 1	 0.00	 0.00	 0.0	 0.0	 1	    1.06158	  -15.13659	 220.0	 5	    1.11000	    0.95000;
	221	 1	 0.00	 0.00	 0.0	 0.0	 1	    1.06150	  -15.13412	 220.0	 5	    1.11000	    0.95000;
	222	 1	 0.00	 0.00	 0.0	 0.0	 1	    1.01823	  -14.39606	 400.0	 5	    1.05000	    0.95000;
	223	 1	 0.00	 0.00	 0.0	 0.0	 1	    1.01823	  -14.39606	 400.0	 5	    1.05000	    0.95000;
	224	 1	 0.00	 0.00	 0.0	 0.0	 1	    1.03181	  -16.37064	 400.0	 5	    1.05000	    0.95000;
	225	 1	 0.00	 0.00	 0.0	 0.0	 1	    1.05436	  -13.54641	 220.0	 5	    1.11000	    0.95000;
	226	 1	 0.00	 0.00	 0.0	 0.0	 1	    1.05439	  -13.54118	 220.0	 5	    1.11000	    0.95000;
	227	 1	 0.00	 0.00	 0.0	 0.0	 1	    1.06551	  -16.35355	 220.0	 5	    1.11000	    0.95000;
	228	 1	 0.00	 0.00	 0.0	 0.0	 1	    1.06300	  -20.68814	 220.0	 5	    1.11000	    0.95000;
	229	 1	 0.00	 0.00	 0.0	 0.0	 1	    1.03080	  -20.50908	 400.0	 5	    1.05000	    0.95000;
	230	 1	 0.00	 0.00	 0.0	 0.0	 1	    1.03077	  -20.50925	 400.0	 5	    1.05000	    0.95000;
	231	 1	 0.00	 0.00	 0.0	 0.0	 1	    1.05000	  -23.67607	 400.0	 5	    1.05000	    0.95000;
	232	 1	 0.00	 0.00	 0.0	 0.0	 1	    1.05485	  -20.73644	 220.0	 5	    1.11000	    0.95000;
	233	 1	 0.00	 0.00	 0.0	 0.0	 1	    1.05495	  -20.73614	 220.0	 5	    1.11000	    0.95000;
	234	 1	 0.00	 0.00	 0.0	 70.0	 1	    1.03699	  -16.62367	 400.0	 5	    1.25000	    0.75000;
	235	 1	 0.00	 0.00	 0.0	 0.0	 1	    1.03697	  -16.61792	 400.0	 5	    1.05000	    0.95000;
	236	 1	 0.00	 0.00	 0.0	 0.0	 1	    1.03263	  -15.74674	 220.0	 5	    1.11000	    0.95000;
	237	 1	 0.00	 0.00	 0.0	 0.0	 1	    1.03257	  -15.74444	 220.0	 5	    1.11000	    0.95000;
	238	 1	 0.00	 0.00	 0.0	 0.0	 1	    1.03752	  -13.61686	 220.0	 5	    1.11000	    0.95000;
	239	 1	 0.00	 0.00	 0.0	 0.0	 1	    1.03744	  -13.62890	 220.0	 5	    1.11000	    0.95000;
	240	 2	 2.32	 40.19	 0.0	 0.0	 1	    1.02650	  -18.62881	 400.0	 5	    1.05000	    0.95000;
	241	 2	 6.40	 30.14	 0.0	 0.0	 1	    1.02650	  -18.62855	 400.0	 5	    1.05000	    0.95000;
	242	 1	 0.00	 0.00	 0.0	 0.0	 1	    1.07637	  -15.26630	 220.0	 5	    1.11000	    0.95000;
	243	 1	 0.00	 0.00	 0.0	 0.0	 1	    1.07645	  -15.26649	 220.0	 5	    1.11000	    0.95000;
	244	 2	 0.00	 0.00	 0.0	 0.0	 0	    1.11000	    9.92557	 220.0	 0	    1.11000	    0.95000;
	245	 1	 11.46	 2.01	 0.0	 0.0	 1	    1.05675	  -21.75118	 110.0	 1	    1.12000	    0.95000;
	246	 1	 8.89	 0.00	 0.0	 0.0	 1	    1.06856	  -28.59254	 110.0	 1	    1.12000	    0.95000;
	247	 1	 8.89	 0.00	 0.0	 0.0	 1	    1.06847	  -28.58623	 110.0	 1	    1.12000	    0.95000;
	248	 1	 7.02	 1.00	 0.0	 0.0	 1	    1.11623	  -15.51325	 110.0	 1	    1.12000	    0.95000;
	249	 1	 7.02	 2.01	 0.0	 0.0	 1	    1.11630	  -15.53468	 110.0	 1	    1.12000	    0.95000;
	250	 1	 3.39	 2.51	 0.0	 0.0	 1	    1.03598	  -20.81511	 110.0	 1	    1.12000	    0.95000;
	251	 1	 7.25	 5.83	 0.0	 0.0	 1	    1.03593	  -20.81811	 110.0	 1	    1.12000	    0.95000;
	252	 1	 5.97	 1.31	 0.0	 0.0	 1	    1.09278	   -1.05351	 110.0	 1	    1.12000	    0.95000;
	253	 1	 7.15	 1.00	 0.0	 0.0	 1	    1.07406	   -3.07472	 110.0	 1	    1.12000	    0.95000;
	254	 2	 -11.53	 119.74	 0.0	 0.0	 1	    1.11223	  -19.15154	 110.0	 1	    1.12000	    0.95000;
	255	 1	 26.54	 2.01	 0.0	 0.0	 1	    1.11215	  -19.08397	 110.0	 1	    1.12000	    0.95000;
	256	 1	 16.89	 1.51	 0.0	 0.0	 1	    1.11292	  -19.02926	 110.0	 1	    1.12000	    0.95000;
	257	 1	 16.74	 0.00	 0.0	 0.0	 1	    1.11284	  -19.06634	 110.0	 1	    1.12000	    0.95000;
	258	 1	 30.16	 3.01	 0.0	 0.0	 1	    1.11118	  -19.29651	 110.0	 1	    1.12000	    0.95000;
	259	 1	 13.27	 2.01	 0.0	 0.0	 1	    1.11188	  -19.13407	 110.0	 1	    1.12000	    0.95000;
	260	 1	 6.03	 1.00	 0.0	 0.0	 1	    1.11099	  -19.48566	 110.0	 1	    1.12000	    0.95000;
	261	 1	 6.03	 1.00	 0.0	 0.0	 1	    1.11099	  -19.47562	 110.0	 1	    1.12000	    0.95000;
	262	 1	 0.00	 0.00	 0.0	 0.0	 1	    1.11285	  -19.50462	 110.0	 1	    1.12000	    0.95000;
	263	 1	 8.90	 1.51	 0.0	 0.0	 1	    1.09514	  -18.21609	 110.0	 1	    1.12000	    0.95000;
	264	 1	 6.45	 1.00	 0.0	 0.0	 1	    1.09521	  -18.20654	 110.0	 1	    1.12000	    0.95000;
	265	 1	 5.82	 0.50	 0.0	 0.0	 1	    1.11685	  -15.16667	 110.0	 1	    1.12000	    0.95000;
	266	 1	 5.82	 0.50	 0.0	 0.0	 1	    1.11683	  -15.17423	 110.0	 1	    1.12000	    0.95000;
	267	 2	 0.06	 0.00	 0.0	 0.0	 1	    1.11390	   -2.23463	 110.0	 1	    1.12000	    0.95000;
	268	 2	 12.53	 2.51	 0.0	 0.0	 1	    1.12000	    2.98899	 110.0	 1	    1.12000	    0.95000;
	269	 1	 23.88	 5.63	 0.0	 0.0	 1	    1.11233	  -17.08240	 110.0	 1	    1.12000	    0.95000;
	270	 1	 1.05	 0.40	 0.0	 0.0	 1	    1.09542	   -3.10095	 110.0	 1	    1.12000	    0.95000;
	271	 1	 1.21	 -0.90	 0.0	 0.0	 1	    1.08843	   -0.01590	 110.0	 1	    1.12000	    0.95000;
	272	 1	 6.53	 0.30	 0.0	 0.0	 1	    1.09829	  -16.14868	 110.0	 1	    1.12000	    0.95000;
	273	 1	 6.03	 0.20	 0.0	 0.0	 1	    1.10056	  -24.86504	 110.0	 1	    1.12000	    0.95000;
	274	 1	 27.75	 2.01	 0.0	 0.0	 1	    1.08648	  -20.58835	 110.0	 1	    1.12000	    0.95000;
	275	 1	 4.81	 2.11	 0.0	 0.0	 1	    1.10652	   -5.13034	 110.0	 1	    1.12000	    0.95000;
	276	 1	 9.61	 1.51	 0.0	 0.0	 1	    1.05622	  -13.45388	 110.0	 1	    1.12000	    0.95000;
	277	 1	 3.63	 0.50	 0.0	 0.0	 1	    1.11948	  -16.85196	 110.0	 1	    1.12000	    0.95000;
	278	 2	 4.45	 1.61	 0.0	 0.0	 1	    1.11947	   -6.08207	 110.0	 1	    1.12000	    0.95000;
	279	 2	 4.45	 1.61	 0.0	 0.0	 1	    1.11989	   -3.31041	 110.0	 1	    1.12000	    0.95000;
	280	 1	 28.09	 6.53	 0.0	 0.0	 1	    1.10361	  -18.30350	 110.0	 1	    1.12000	    0.95000;
	281	 1	 11.95	 2.21	 0.0	 0.0	 1	    1.07537	   -2.91394	 110.0	 1	    1.12000	    0.95000;
	282	 1	 7.02	 0.50	 0.0	 0.0	 1	    1.07505	   -8.92466	 110.0	 1	    1.12000	    0.95000;
	283	 1	 3.75	 0.20	 0.0	 0.0	 1	    1.07505	   -8.91854	 110.0	 1	    1.12000	    0.95000;
	284	 1	 15.58	 7.03	 0.0	 0.0	 1	    1.07313	   -1.91098	 110.0	 1	    1.12000	    0.95000;
	285	 1	 23.89	 11.55	 0.0	 0.0	 1	    1.07301	   -1.93547	 110.0	 1	    1.12000	    0.95000;
	286	 1	 11.89	 0.40	 0.0	 0.0	 1	    1.08004	  -20.46736	 110.0	 1	    1.12000	    0.95000;
	287	 1	 14.53	 4.52	 0.0	 0.0	 1	    1.11294	   -4.69949	 110.0	 1	    1.12000	    0.95000;
	288	 1	 11.07	 0.80	 0.0	 0.0	 1	    1.08041	  -20.55951	 110.0	 1	    1.12000	    0.95000;
	289	 1	 0.00	 0.00	 0.0	 0.0	 1	    1.08037	  -20.56913	 110.0	 1	    1.12000	    0.95000;
	290	 1	 7.24	 0.30	 0.0	 0.0	 1	    1.09469	  -20.58403	 110.0	 1	    1.12000	    0.95000;
	291	 1	 5.23	 0.00	 0.0	 0.0	 1	    1.08657	  -21.15535	 110.0	 1	    1.12000	    0.95000;
	292	 1	 4.19	 0.00	 0.0	 0.0	 1	    1.08653	  -21.16392	 110.0	 1	    1.12000	    0.95000;
	293	 1	 1.05	 0.00	 0.0	 0.0	 1	    1.09303	  -22.14073	 110.0	 1	    1.12000	    0.95000;
	294	 1	 0.00	 0.00	 0.0	 0.0	 1	    1.09305	  -22.16478	 110.0	 1	    1.12000	    0.95000;
	295	 2	 0.27	 0.40	 0.0	 0.0	 1	    1.12000	  -15.12708	 110.0	 1	    1.12000	    0.95000;
	296	 1	 0.00	 0.00	 0.0	 0.0	 1	    1.11997	  -15.16127	 110.0	 1	    1.12000	    0.95000;
	297	 1	 10.86	 2.01	 0.0	 0.0	 1	    1.06957	  -26.55301	 110.0	 1	    1.12000	    0.95000;
	298	 1	 0.35	 0.10	 0.0	 0.0	 1	    1.10076	   -2.77677	 110.0	 1	    1.12000	    0.95000;
	299	 1	 0.35	 0.10	 0.0	 0.0	 1	    1.09951	   -3.14721	 110.0	 1	    1.12000	    0.95000;
	300	 1	 15.58	 7.64	 0.0	 0.0	 1	    1.09838	   -2.87289	 110.0	 1	    1.12000	    0.95000;
	301	 1	 0.59	 0.20	 0.0	 0.0	 1	    1.09947	   -3.14908	 110.0	 1	    1.12000	    0.95000;
	302	 1	 8.97	 0.10	 0.0	 0.0	 1	    1.07728	  -21.43722	 110.0	 1	    1.12000	    0.95000;
	303	 1	 10.37	 0.10	 0.0	 0.0	 1	    1.07733	  -21.45272	 110.0	 1	    1.12000	    0.95000;
	304	 1	 7.74	 2.21	 0.0	 0.0	 1	    1.10864	   -4.28717	 110.0	 1	    1.12000	    0.95000;
	305	 1	 7.73	 0.60	 0.0	 0.0	 1	    1.09925	   -3.14771	 110.0	 1	    1.12000	    0.95000;
	306	 1	 4.22	 0.30	 0.0	 0.0	 1	    1.09924	   -3.11958	 110.0	 1	    1.12000	    0.95000;
	307	 1	 4.80	 1.00	 0.0	 0.0	 1	    1.11405	  -17.13296	 110.0	 1	    1.12000	    0.95000;
	308	 1	 0.00	 0.00	 0.0	 0.0	 1	    1.08785	    0.00252	 110.0	 1	    1.12000	    0.95000;
	309	 1	 0.00	 0.00	 0.0	 0.0	 1	    1.08795	   -0.00578	 110.0	 1	    1.12000	    0.95000;
	310	 2	 39.02	 48.83	 0.0	 0.0	 1	    1.00129	    3.25884	 24.0	 1	    1.12000	    0.95000;
	311	 1	 7.24	 0.50	 0.0	 0.0	 1	    1.09631	  -26.87114	 110.0	 1	    1.12000	    0.95000;
	312	 1	 7.24	 0.50	 0.0	 0.0	 1	    1.09626	  -26.89310	 110.0	 1	    1.12000	    0.95000;
	313	 1	 5.43	 0.50	 0.0	 0.0	 1	    1.09756	  -26.57401	 110.0	 1	    1.12000	    0.95000;
	314	 1	 3.02	 0.50	 0.0	 0.0	 1	    1.10960	  -25.61721	 110.0	 1	    1.12000	    0.95000;
	315	 1	 0.00	 0.00	 0.0	 45.0	 1	    1.08852	  -26.06266	 16.0	 1	    1.25000	    0.75000;
	316	 2	 0.00	 -0.02	 0.0	 0.0	 1	    1.05545	  -18.62989	 110.0	 1	    1.12000	    0.95000;