%%%%%%%%%%%%%%%%%%%%%%%%%%%%%%%%%%%%%%%%%%%%%%%%%%%%%%%%%%%%%%%%%%%%%%%%%%%
%%%%                                                                  %%%%%
%%%%    IEEE PES Power Grid Library - Optimal Power Flow - v23.07     %%%%%
%%%%          (https://github.com/power-grid-lib/pglib-opf)           %%%%%
%%%%             Benchmark Group - Active Power Increase              %%%%%
%%%%                         23 - July - 2023                         %%%%%
%%%%                                                                  %%%%%
%%%%%%%%%%%%%%%%%%%%%%%%%%%%%%%%%%%%%%%%%%%%%%%%%%%%%%%%%%%%%%%%%%%%%%%%%%%
function mpc = pglib_opf_case197_snem__api
mpc.version = '2';
mpc.baseMVA = 100.0;

%% bus data
%	bus_i	type	Pd	Qd	Gs	Bs	area	Vm	Va	baseKV	zone	Vmax	Vmin
mpc.bus = [
	2112	 1	 -18.46	 0.00	 0.0	 10.7958302228	 5	    1.00000	    0.00000	 33.0	 1	    1.10000	    0.90000;
	2114	 2	 0.0	 0.0	 0.0	 0.0	 5	    1.00000	    0.00000	 13.8	 1	    1.10000	    0.90000;
	2115	 2	 0.0	 0.0	 0.0	 0.0	 5	    1.00000	    0.00000	 13.8	 1	    1.10000	    0.90000;
	2116	 2	 0.0	 0.0	 0.0	 0.0	 5	    1.00000	    0.00000	 13.8	 1	    1.10000	    0.90000;
	2117	 2	 0.0	 0.0	 0.0	 0.0	 5	    1.00000	    0.00000	 11.0	 1	    1.10000	    0.90000;
	2118	 2	 1.44	 0.00	 0.0	 0.0	 5	    1.00000	    0.00000	 13.8	 1	    1.10000	    0.90000;
	2119	 2	 0.0	 0.0	 0.0	 0.0	 5	    1.00000	    0.00000	 11.0	 1	    1.10000	    0.90000;
	2120	 1	 0.0	 0.0	 0.0	 0.0	 5	    1.00000	    0.00000	 11.5	 1	    1.10000	    0.90000;
	2121	 1	 0.0	 0.0	 0.0	 0.0	 5	    1.00000	    0.00000	 11.5	 1	    1.10000	    0.90000;
	2122	 1	 0.0	 0.0	 0.0	 0.0	 5	    1.00000	    0.00000	 11.5	 1	    1.10000	    0.90000;
	2123	 2	 0.0	 0.0	 0.0	 0.0	 5	    1.00000	    0.00000	 11.5	 1	    1.10000	    0.90000;
	2124	 2	 9.55	 1.85	 0.0	 0.0	 5	    1.00000	    0.00000	 14.5	 1	    1.10000	    0.90000;
	2125	 2	 0.0	 0.0	 0.0	 0.0	 5	    1.00000	    0.00000	 13.2	 1	    1.10000	    0.90000;
	2126	 2	 0.0	 0.0	 0.0	 0.0	 5	    1.00000	    0.00000	 11.0	 1	    1.10000	    0.90000;
	2127	 2	 0.0	 0.0	 0.0	 0.0	 5	    1.00000	    0.00000	 11.0	 1	    1.10000	    0.90000;
	2128	 2	 0.0	 0.0	 0.0	 0.0	 5	    1.00000	    0.00000	 11.0	 1	    1.10000	    0.90000;
	2129	 2	 0.0	 0.0	 0.0	 0.0	 5	    1.00000	    0.00000	 11.0	 1	    1.10000	    0.90000;
	2130	 2	 0.0	 0.0	 0.0	 0.0	 5	    1.00000	    0.00000	 11.0	 1	    1.10000	    0.90000;
	2131	 2	 0.0	 0.0	 0.0	 0.0	 5	    1.00000	    0.00000	 11.0	 1	    1.10000	    0.90000;
	2132	 2	 0.0	 0.0	 0.0	 0.0	 5	    1.00000	    0.00000	 11.0	 1	    1.10000	    0.90000;
	2133	 2	 0.0	 0.0	 0.0	 0.0	 5	    1.00000	    0.00000	 11.0	 1	    1.10000	    0.90000;
	2134	 2	 0.0	 0.0	 0.0	 0.0	 5	    1.00000	    0.00000	 18.0	 1	    1.10000	    0.90000;
	2135	 2	 0.0	 0.0	 0.0	 0.0	 5	    1.00000	    0.00000	 18.0	 1	    1.10000	    0.90000;
	2136	 3	 0.0	 0.0	 0.0	 0.0	 5	    1.00000	    0.00000	 18.0	 1	    1.10000	    0.90000;
	2137	 1	 0.0	 0.0	 0.0	 0.0	 5	    1.00000	    0.00000	 6.6	 1	    1.10000	    0.90000;
	2138	 2	 0.0	 0.0	 0.0	 0.0	 5	    1.00000	    0.00000	 11.0	 1	    1.10000	    0.90000;
	2139	 2	 0.0	 0.0	 0.0	 0.0	 5	    1.00000	    0.00000	 11.0	 1	    1.10000	    0.90000;
	2140	 2	 0.0	 0.0	 0.0	 0.0	 5	    1.00000	    0.00000	 16.0	 1	    1.10000	    0.90000;
	2141	 1	 0.0	 0.0	 0.0	 0.0	 5	    1.00000	    0.00000	 16.0	 1	    1.10000	    0.90000;
	2142	 2	 0.0	 0.0	 0.0	 0.0	 5	    1.00000	    0.00000	 16.0	 1	    1.10000	    0.90000;
	2143	 2	 0.0	 0.0	 0.0	 0.0	 5	    1.00000	    0.00000	 16.0	 1	    1.10000	    0.90000;
	2144	 2	 0.0	 0.0	 0.0	 0.0	 5	    1.00000	    0.00000	 16.0	 1	    1.10000	    0.90000;
	2145	 1	 0.0	 0.0	 0.0	 0.0	 5	    1.00000	    0.00000	 16.0	 1	    1.10000	    0.90000;
	2146	 1	 -7.49	 0.00	 0.0	 0.0	 5	    1.00000	    0.00000	 0.69	 1	    1.10000	    0.90000;
	2147	 1	 0.0	 0.0	 0.0	 0.0	 5	    1.00000	    0.00000	 22.0	 1	    1.10000	    0.90000;
	2148	 2	 0.0	 0.0	 0.0	 0.0	 5	    1.00000	    0.00000	 1.0	 1	    1.10000	    0.90000;
	2149	 1	 0.0	 0.0	 0.0	 -5.70733361581	 5	    1.00000	    0.00000	 13.8	 1	    1.10000	    0.90000;
	2150	 1	 0.0	 0.0	 0.0	 -6.03779546404	 5	    1.00000	    0.00000	 13.8	 1	    1.10000	    0.90000;
	2152	 1	 0.0	 0.0	 0.0	 0.0	 5	    1.00000	    0.00000	 110.0	 1	    1.10000	    0.90000;
	2153	 1	 0.0	 0.0	 0.0	 0.0	 5	    1.00000	    0.00000	 110.0	 1	    1.10000	    0.90000;
	2155	 1	 0.0	 0.0	 0.0	 0.0	 5	    1.00000	    0.00000	 110.0	 1	    1.10000	    0.90000;
	2156	 1	 0.0	 0.0	 0.0	 0.0	 5	    1.00000	    0.00000	 110.0	 1	    1.10000	    0.90000;
	2157	 1	 0.0	 0.0	 0.0	 0.0	 5	    1.00000	    0.00000	 110.0	 1	    1.10000	    0.90000;
	2158	 1	 0.0	 0.0	 0.0	 0.0	 5	    1.00000	    0.00000	 110.0	 1	    1.10000	    0.90000;
	2160	 1	 0.0	 0.0	 0.0	 0.0	 5	    1.00000	    0.00000	 110.0	 1	    1.10000	    0.90000;
	2161	 1	 0.0	 0.0	 0.0	 0.0	 5	    1.00000	    0.00000	 110.0	 1	    1.10000	    0.90000;
	2162	 1	 0.0	 0.0	 0.0	 0.0	 5	    1.00000	    0.00000	 110.0	 1	    1.10000	    0.90000;
	2163	 1	 0.0	 0.0	 0.0	 0.0	 5	    1.00000	    0.00000	 110.0	 1	    1.10000	    0.90000;
	2164	 1	 0.0	 0.0	 0.0	 30.2475361833	 5	    1.00000	    0.00000	 110.0	 1	    1.10000	    0.90000;
	2165	 1	 0.0	 0.0	 0.0	 0.0	 5	    1.00000	    0.00000	 110.0	 1	    1.10000	    0.90000;
	2166	 1	 0.0	 0.0	 0.0	 29.8942327662	 5	    1.00000	    0.00000	 110.0	 1	    1.10000	    0.90000;
	2167	 1	 0.0	 0.0	 0.0	 0.0	 5	    1.00000	    0.00000	 110.0	 1	    1.10000	    0.90000;
	2168	 1	 0.0	 0.0	 0.0	 0.0	 5	    1.00000	    0.00000	 110.0	 1	    1.10000	    0.90000;
	2169	 1	 0.0	 0.0	 0.0	 0.0	 5	    1.00000	    0.00000	 110.0	 1	    1.10000	    0.90000;
	2170	 1	 0.0	 0.0	 0.0	 0.0	 5	    1.00000	    0.00000	 110.0	 1	    1.10000	    0.90000;
	2171	 1	 0.0	 0.0	 0.0	 0.0	 5	    1.00000	    0.00000	 110.0	 1	    1.10000	    0.90000;
	2172	 1	 0.0	 0.0	 0.0	 0.0	 5	    1.00000	    0.00000	 110.0	 1	    1.10000	    0.90000;
	2173	 1	 0.0	 0.0	 0.0	 27.5769489619	 5	    1.00000	    0.00000	 110.0	 1	    1.10000	    0.90000;
	2174	 1	 0.0	 0.0	 0.0	 0.0	 5	    1.00000	    0.00000	 110.0	 1	    1.10000	    0.90000;
	2175	 1	 195.98	 5.56	 0.0	 0.0	 5	    1.00000	    0.00000	 110.0	 1	    1.10000	    0.90000;
	2176	 1	 0.0	 0.0	 0.0	 0.0	 5	    1.00000	    0.00000	 110.0	 1	    1.10000	    0.90000;
	2177	 1	 0.0	 0.0	 0.0	 0.0	 5	    1.00000	    0.00000	 110.0	 1	    1.10000	    0.90000;
	2178	 1	 0.0	 0.0	 0.0	 0.0	 5	    1.00000	    0.00000	 110.0	 1	    1.10000	    0.90000;
	2180	 1	 0.0	 0.0	 0.0	 0.0	 5	    1.00000	    0.00000	 110.0	 1	    1.10000	    0.90000;
	2183	 1	 0.0	 0.0	 0.0	 0.0	 5	    1.00000	    0.00000	 110.0	 1	    1.10000	    0.90000;
	2186	 1	 0.0	 0.0	 0.0	 0.0	 5	    1.00000	    0.00000	 110.0	 1	    1.10000	    0.90000;
	2189	 1	 0.0	 0.0	 0.0	 0.0	 5	    1.00000	    0.00000	 110.0	 1	    1.10000	    0.90000;
	2190	 1	 0.0	 0.0	 0.0	 0.0	 5	    1.00000	    0.00000	 110.0	 1	    1.10000	    0.90000;
	2192	 1	 0.0	 0.0	 0.0	 0.0	 5	    1.00000	    0.00000	 110.0	 1	    1.10000	    0.90000;
	2193	 1	 0.0	 0.0	 0.0	 0.0	 5	    1.00000	    0.00000	 110.0	 1	    1.10000	    0.90000;
	2194	 1	 0.0	 0.0	 0.0	 0.0	 5	    1.00000	    0.00000	 110.0	 1	    1.10000	    0.90000;
	2195	 1	 0.0	 0.0	 0.0	 39.4429057464	 5	    1.00000	    0.00000	 110.0	 1	    1.10000	    0.90000;
	2198	 1	 0.0	 0.0	 0.0	 0.0	 5	    1.00000	    0.00000	 110.0	 1	    1.10000	    0.90000;
	2199	 1	 7.42	 1.23	 0.0	 0.0	 5	    1.00000	    0.00000	 33.0	 1	    1.10000	    0.90000;
	2200	 1	 0.0	 0.0	 0.0	 0.0	 5	    1.00000	    0.00000	 110.0	 1	    1.10000	    0.90000;
	2201	 1	 0.0	 0.0	 0.0	 0.0	 5	    1.00000	    0.00000	 110.0	 1	    1.10000	    0.90000;
	2202	 1	 0.0	 0.0	 0.0	 0.0	 5	    1.00000	    0.00000	 110.0	 1	    1.10000	    0.90000;
	2203	 1	 0.0	 0.0	 0.0	 0.0	 5	    1.00000	    0.00000	 110.0	 1	    1.10000	    0.90000;
	2204	 1	 0.0	 0.0	 0.0	 0.0	 5	    1.00000	    0.00000	 110.0	 1	    1.10000	    0.90000;
	2205	 1	 0.0	 0.0	 0.0	 0.0	 5	    1.00000	    0.00000	 110.0	 1	    1.10000	    0.90000;
	2206	 1	 0.0	 0.0	 0.0	 0.0	 5	    1.00000	    0.00000	 110.0	 1	    1.10000	    0.90000;
	2207	 1	 0.0	 0.0	 0.0	 0.0	 5	    1.00000	    0.00000	 110.0	 1	    1.10000	    0.90000;
	2208	 1	 0.0	 0.0	 0.0	 0.0	 5	    1.00000	    0.00000	 110.0	 1	    1.10000	    0.90000;
	2209	 1	 0.0	 0.0	 0.0	 0.0	 5	    1.00000	    0.00000	 110.0	 1	    1.10000	    0.90000;
	2210	 1	 0.0	 0.0	 0.0	 0.0	 5	    1.00000	    0.00000	 110.0	 1	    1.10000	    0.90000;
	2212	 1	 0.0	 0.0	 0.0	 0.0	 5	    1.00000	    0.00000	 110.0	 1	    1.10000	    0.90000;
	2214	 1	 0.0	 0.0	 0.0	 0.0	 5	    1.00000	    0.00000	 110.0	 1	    1.10000	    0.90000;
	2215	 1	 0.0	 0.0	 0.0	 0.0	 5	    1.00000	    0.00000	 110.0	 1	    1.10000	    0.90000;
	2217	 1	 0.0	 0.0	 0.0	 0.0	 5	    1.00000	    0.00000	 110.0	 1	    1.10000	    0.90000;
	2219	 1	 0.0	 0.0	 0.0	 0.0	 5	    1.00000	    0.00000	 110.0	 1	    1.10000	    0.90000;
	2220	 1	 0.0	 0.0	 0.0	 0.0	 5	    1.00000	    0.00000	 110.0	 1	    1.10000	    0.90000;
	2221	 1	 45.67	 4.24	 0.0	 0.0	 5	    1.00000	    0.00000	 22.0	 1	    1.10000	    0.90000;
	2222	 1	 0.0	 0.0	 0.0	 0.0	 5	    1.00000	    0.00000	 110.0	 1	    1.10000	    0.90000;
	2223	 1	 0.0	 0.0	 0.0	 0.0	 5	    1.00000	    0.00000	 110.0	 1	    1.10000	    0.90000;
	2224	 1	 0.0	 0.0	 0.0	 0.0	 5	    1.00000	    0.00000	 110.0	 1	    1.10000	    0.90000;
	2225	 1	 0.0	 0.0	 0.0	 0.0	 5	    1.00000	    0.00000	 110.0	 1	    1.10000	    0.90000;
	2226	 1	 1.51	 0.81	 0.0	 0.0	 5	    1.00000	    0.00000	 110.0	 1	    1.10000	    0.90000;
	2227	 1	 0.0	 0.0	 0.0	 0.0	 5	    1.00000	    0.00000	 110.0	 1	    1.10000	    0.90000;
	2228	 1	 1.25	 -0.66	 0.0	 0.0	 5	    1.00000	    0.00000	 110.0	 1	    1.10000	    0.90000;
	2229	 1	 0.0	 0.0	 0.0	 0.0	 5	    1.00000	    0.00000	 110.0	 1	    1.10000	    0.90000;
	2231	 1	 0.0	 0.0	 0.0	 0.0	 5	    1.00000	    0.00000	 110.0	 1	    1.10000	    0.90000;
	2232	 1	 0.0	 0.0	 0.0	 0.0	 5	    1.00000	    0.00000	 110.0	 1	    1.10000	    0.90000;
	2233	 1	 0.0	 0.0	 0.0	 0.0	 5	    1.00000	    0.00000	 110.0	 1	    1.10000	    0.90000;
	2234	 1	 11.29	 0.35	 0.0	 0.0	 5	    1.00000	    0.00000	 33.0	 1	    1.10000	    0.90000;
	2235	 1	 11.44	 0.32	 0.0	 0.0	 5	    1.00000	    0.00000	 33.0	 1	    1.10000	    0.90000;
	2237	 1	 0.0	 0.0	 0.0	 0.0	 5	    1.00000	    0.00000	 110.0	 1	    1.10000	    0.90000;
	2238	 1	 0.0	 0.0	 0.0	 0.0	 5	    1.00000	    0.00000	 110.0	 1	    1.10000	    0.90000;
	2239	 1	 0.0	 0.0	 0.0	 0.0	 5	    1.00000	    0.00000	 220.0	 1	    1.10000	    0.90000;
	2240	 1	 0.0	 0.0	 0.0	 0.0	 5	    1.00000	    0.00000	 220.0	 1	    1.10000	    0.90000;
	2241	 1	 0.0	 0.0	 0.0	 0.0	 5	    1.00000	    0.00000	 220.0	 1	    1.10000	    0.90000;
	2242	 1	 0.0	 0.0	 0.0	 0.0	 5	    1.00000	    0.00000	 220.0	 1	    1.10000	    0.90000;
	2243	 1	 0.0	 0.0	 0.0	 0.0	 5	    1.00000	    0.00000	 220.0	 1	    1.10000	    0.90000;
	2244	 1	 0.0	 0.0	 0.0	 0.0	 5	    1.00000	    0.00000	 220.0	 1	    1.10000	    0.90000;
	2247	 1	 0.0	 0.0	 0.0	 0.0	 5	    1.00000	    0.00000	 220.0	 1	    1.10000	    0.90000;
	2249	 1	 0.0	 0.0	 0.0	 0.0	 5	    1.00000	    0.00000	 220.0	 1	    1.10000	    0.90000;
	2250	 2	 1362.69	 94.40	 0.0	 269.606850442	 5	    1.00000	    0.00000	 220.0	 1	    1.10000	    0.90000;
	2255	 1	 0.0	 0.0	 0.0	 0.0	 5	    1.00000	    0.00000	 220.0	 1	    1.10000	    0.90000;
	2259	 1	 0.0	 0.0	 0.0	 0.0	 5	    1.00000	    0.00000	 220.0	 1	    1.10000	    0.90000;
	2261	 1	 0.0	 0.0	 0.0	 0.0	 5	    1.00000	    0.00000	 220.0	 1	    1.10000	    0.90000;
	2262	 1	 0.0	 0.0	 0.0	 0.0	 5	    1.00000	    0.00000	 220.0	 1	    1.10000	    0.90000;
	2263	 1	 0.0	 0.0	 0.0	 0.0	 5	    1.00000	    0.00000	 220.0	 1	    1.10000	    0.90000;
	2268	 1	 0.0	 0.0	 0.0	 0.0	 5	    1.00000	    0.00000	 220.0	 1	    1.10000	    0.90000;
	2269	 1	 0.0	 0.0	 0.0	 0.0	 5	    1.00000	    0.00000	 220.0	 1	    1.10000	    0.90000;
	2270	 1	 0.0	 0.0	 0.0	 0.0	 5	    1.00000	    0.00000	 220.0	 1	    1.10000	    0.90000;
	2272	 1	 0.10	 -0.13	 0.0	 0.0	 5	    1.00000	    0.00000	 11.0	 1	    1.10000	    0.90000;
	2273	 1	 35.70	 4.79	 0.0	 0.0	 5	    1.00000	    0.00000	 22.0	 1	    1.10000	    0.90000;
	2274	 1	 25.23	 9.05	 0.0	 0.0	 5	    1.00000	    0.00000	 6.6	 1	    1.10000	    0.90000;
	2275	 1	 20.01	 5.37	 0.0	 0.0	 5	    1.00000	    0.00000	 6.6	 1	    1.10000	    0.90000;
	2276	 1	 2.21	 0.52	 0.0	 0.0	 5	    1.00000	    0.00000	 6.6	 1	    1.10000	    0.90000;
	2277	 1	 68.45	 12.08	 0.0	 0.0	 5	    1.00000	    0.00000	 33.0	 1	    1.10000	    0.90000;
	2278	 1	 27.45	 0.18	 0.0	 0.0	 5	    1.00000	    0.00000	 33.0	 1	    1.10000	    0.90000;
	2279	 1	 50.30	 17.09	 0.0	 0.0	 5	    1.00000	    0.00000	 44.0	 1	    1.10000	    0.90000;
	2280	 1	 2.29	 -0.22	 0.0	 0.0	 5	    1.00000	    0.00000	 22.0	 1	    1.10000	    0.90000;
	2281	 1	 -5.28	 1.57	 0.0	 0.0	 5	    1.00000	    0.00000	 11.0	 1	    1.10000	    0.90000;
	2282	 1	 1.07	 0.16	 0.0	 0.0	 5	    1.00000	    0.00000	 22.0	 1	    1.10000	    0.90000;
	2283	 1	 5.13	 0.92	 0.0	 0.0	 5	    1.00000	    0.00000	 22.0	 1	    1.10000	    0.90000;
	2284	 1	 0.10	 -0.08	 0.0	 0.0	 5	    1.00000	    0.00000	 11.0	 1	    1.10000	    0.90000;
	2285	 1	 26.64	 5.50	 0.0	 0.0	 5	    1.00000	    0.00000	 22.0	 1	    1.10000	    0.90000;
	2286	 1	 22.89	 4.23	 0.0	 0.0	 5	    1.00000	    0.00000	 22.0	 1	    1.10000	    0.90000;
	2287	 1	 58.70	 4.94	 0.0	 0.0	 5	    1.00000	    0.00000	 22.0	 1	    1.10000	    0.90000;
	2288	 1	 8.89	 2.31	 0.0	 0.0	 5	    1.00000	    0.00000	 11.0	 1	    1.10000	    0.90000;
	2289	 1	 21.27	 2.24	 0.0	 0.0	 5	    1.00000	    0.00000	 22.0	 1	    1.10000	    0.90000;
	2290	 1	 63.24	 11.44	 0.0	 0.0	 5	    1.00000	    0.00000	 22.0	 1	    1.10000	    0.90000;
	2291	 1	 66.27	 13.56	 0.0	 0.0	 5	    1.00000	    0.00000	 22.0	 1	    1.10000	    0.90000;
	2292	 1	 16.56	 1.29	 0.0	 0.0	 5	    1.00000	    0.00000	 22.0	 1	    1.10000	    0.90000;
	2293	 1	 12.20	 1.67	 0.0	 0.0	 5	    1.00000	    0.00000	 22.0	 1	    1.10000	    0.90000;
	2294	 1	 0.0	 0.0	 0.0	 0.0	 5	    1.00000	    0.00000	 22.0	 1	    1.10000	    0.90000;
	2295	 1	 1.13	 -0.13	 0.0	 0.0	 5	    1.00000	    0.00000	 22.0	 1	    1.10000	    0.90000;
	2296	 1	 7.01	 1.13	 0.0	 0.0	 5	    1.00000	    0.00000	 22.0	 1	    1.10000	    0.90000;
	2297	 1	 0.10	 -0.16	 0.0	 0.0	 5	    1.00000	    0.00000	 22.0	 1	    1.10000	    0.90000;
	2298	 1	 12.53	 0.63	 0.0	 0.0	 5	    1.00000	    0.00000	 11.0	 1	    1.10000	    0.90000;
	2299	 1	 4.77	 -0.36	 0.0	 0.0	 5	    1.00000	    0.00000	 11.0	 1	    1.10000	    0.90000;
	2300	 1	 12.19	 1.53	 0.0	 0.0	 5	    1.00000	    0.00000	 11.0	 1	    1.10000	    0.90000;
	2301	 1	 11.37	 1.10	 0.0	 0.0	 5	    1.00000	    0.00000	 11.0	 1	    1.10000	    0.90000;
	2302	 1	 18.88	 3.51	 0.0	 0.0	 5	    1.00000	    0.00000	 11.0	 1	    1.10000	    0.90000;
	2303	 1	 14.23	 1.73	 0.0	 0.0	 5	    1.00000	    0.00000	 11.0	 1	    1.10000	    0.90000;
	2304	 1	 2.91	 -0.20	 0.0	 0.0	 5	    1.00000	    0.00000	 11.0	 1	    1.10000	    0.90000;
	2305	 1	 3.20	 -0.03	 0.0	 0.0	 5	    1.00000	    0.00000	 11.0	 1	    1.10000	    0.90000;
	2306	 1	 2.20	 0.15	 0.0	 0.0	 5	    1.00000	    0.00000	 22.0	 1	    1.10000	    0.90000;
	2307	 1	 2.18	 0.14	 0.0	 0.0	 5	    1.00000	    0.00000	 22.0	 1	    1.10000	    0.90000;
	2308	 1	 2.70	 -0.52	 0.0	 0.0	 5	    1.00000	    0.00000	 11.0	 1	    1.10000	    0.90000;
	2309	 1	 6.55	 0.27	 0.0	 0.0	 5	    1.00000	    0.00000	 11.0	 1	    1.10000	    0.90000;
	2310	 1	 7.85	 1.24	 0.0	 0.0	 5	    1.00000	    0.00000	 11.0	 1	    1.10000	    0.90000;
	2311	 1	 20.24	 3.44	 0.0	 0.0	 5	    1.00000	    0.00000	 11.0	 1	    1.10000	    0.90000;
	2312	 1	 6.15	 1.21	 0.0	 0.0	 5	    1.00000	    0.00000	 11.0	 1	    1.10000	    0.90000;
	2313	 1	 22.81	 0.93	 0.0	 0.0	 5	    1.00000	    0.00000	 22.0	 1	    1.10000	    0.90000;
	2314	 1	 19.10	 2.72	 0.0	 0.0	 5	    1.00000	    0.00000	 22.0	 1	    1.10000	    0.90000;
	2315	 1	 52.92	 5.39	 0.0	 0.0	 5	    1.00000	    0.00000	 22.0	 1	    1.10000	    0.90000;
	2316	 1	 10.72	 2.31	 0.0	 0.0	 5	    1.00000	    0.00000	 22.0	 1	    1.10000	    0.90000;
	2317	 1	 16.22	 2.29	 0.0	 0.0	 5	    1.00000	    0.00000	 22.0	 1	    1.10000	    0.90000;
	2318	 1	 10.37	 -0.05	 0.0	 0.0	 5	    1.00000	    0.00000	 22.0	 1	    1.10000	    0.90000;
	2319	 1	 0.0	 0.0	 0.0	 0.0	 5	    1.00000	    0.00000	 22.0	 1	    1.10000	    0.90000;
	2320	 1	 28.87	 3.40	 0.0	 0.0	 5	    1.00000	    0.00000	 22.0	 1	    1.10000	    0.90000;
	2321	 1	 5.51	 -0.30	 0.0	 0.0	 5	    1.00000	    0.00000	 22.0	 1	    1.10000	    0.90000;
	2322	 1	 0.48	 0.32	 0.0	 0.0	 5	    1.00000	    0.00000	 11.0	 1	    1.10000	    0.90000;
	2323	 1	 0.0	 0.0	 0.0	 0.0	 5	    1.00000	    0.00000	 110.0	 1	    1.10000	    0.90000;
	2324	 1	 0.0	 0.0	 0.0	 0.0	 5	    1.00000	    0.00000	 1.0	 1	    1.10000	    0.90000;
	2325	 1	 0.0	 0.0	 0.0	 0.0	 5	    1.00000	    0.00000	 1.0	 1	    1.10000	    0.90000;
	2326	 1	 0.0	 0.0	 0.0	 0.0	 5	    1.00000	    0.00000	 1.0	 1	    1.10000	    0.90000;
	2328	 1	 0.0	 0.0	 0.0	 0.0	 5	    1.00000	    0.00000	 22.0	 1	    1.10000	    0.90000;
	2329	 2	 0.0	 0.0	 0.0	 0.0	 5	    1.00000	    0.00000	 11.0	 1	    1.10000	    0.90000;
	2330	 2	 0.0	 0.0	 0.0	 0.0	 5	    1.00000	    0.00000	 11.0	 1	    1.10000	    0.90000;
	2331	 2	 0.0	 0.0	 0.0	 0.0	 5	    1.00000	    0.00000	 11.0	 1	    1.10000	    0.90000;
	2332	 2	 0.0	 0.0	 0.0	 0.0	 5	    1.00000	    0.00000	 11.0	 1	    1.10000	    0.90000;
	2333	 2	 0.0	 0.0	 0.0	 0.0	 5	    1.00000	    0.00000	 11.0	 1	    1.10000	    0.90000;
	2334	 2	 0.0	 0.0	 0.0	 0.0	 5	    1.00000	    0.00000	 11.0	 1	    1.10000	    0.90000;
	2335	 2	 0.0	 0.0	 0.0	 0.0	 5	    1.00000	    0.00000	 11.0	 1	    1.10000	    0.90000;
	2336	 1	 58.50	 10.65	 0.0	 0.0	 5	    1.00000	    0.00000	 33.0	 1	    1.10000	    0.90000;
	2337	 1	 88.60	 16.25	 0.0	 0.0	 5	    1.00000	    0.00000	 11.0	 1	    1.10000	    0.90000;
	2338	 1	 3.06	 2.65	 0.0	 0.0	 5	    1.00000	    0.00000	 22.0	 1	    1.10000	    0.90000;
	2339	 1	 15.72	 -4.32	 0.0	 0.0	 5	    1.00000	    0.00000	 6.6	 1	    1.10000	    0.90000;
	10108	 1	 0.0	 0.0	 0.0	 0.0	 5	    1.00000	    0.00000	 110.0	 1	    1.10000	    0.90000;
	10109	 1	 0.0	 0.0	 0.0	 0.0	 5	    1.00000	    0.00000	 110.0	 1	    1.10000	    0.90000;
	10110	 1	 0.0	 0.0	 0.0	 0.0	 5	    1.00000	    0.00000	 110.0	 1	    1.10000	    0.90000;
	10111	 1	 0.0	 0.0	 0.0	 0.0	 5	    1.00000	    0.00000	 110.0	 1	    1.10000	    0.90000;
	10112	 1	 0.0	 0.0	 0.0	 0.0	 5	    1.00000	    0.00000	 110.0	 1	    1.10000	    0.90000;
	10113	 1	 0.0	 0.0	 0.0	 0.0	 5	    1.00000	    0.00000	 110.0	 1	    1.10000	    0.90000;
];

%% generator data
%	bus	Pg	Qg	Qmax	Qmin	Vg	mBase	status	Pmax	Pmin
mpc.gen = [
	2114	 2.0	 10.0	 110.0	 -90.0	 1.0	 147.696965935	 1	 4	 0.0; % NG
	2115	 2.0	 5.0	 120.0	 -110.0	 1.0	 147.170128863	 1	 4	 0.0; % COW
	2116	 106.5	 0.0	 107.0	 -107.0	 1.0	 99.8268229078	 1	 213	 0.0; % NG
	2117	 1.5	 0.0	 20.0	 -20.0	 1.0	 59.56099006	 1	 3	 0.0; % PEL
	2118	 1.0	 5.0	 90.0	 -80.0	 1.0	 123.244468958	 1	 2	 0.0; % NG
	2119	 4.0	 0.0	 20.0	 -20.0	 1.0	 37.8683050583	 1	 8	 0.0; % COW
	2123	 3.5	 0.0	 72.0	 -72.0	 1.0	 72.6031327684	 1	 7	 0.0; % NG
	2124	 208.0	 0.0	 208.0	 -208.0	 1.0	 192.647608941	 1	 416	 0.0; % NG
	2125	 158.5	 0.0	 159.0	 -159.0	 1.0	 96.002555525	 1	 317	 0.0; % NG
	2126	 2.0	 5.0	 20.0	 -10.0	 1.0	 16.4278021573	 1	 4	 0.0; % NG
	2127	 2.0	 0.0	 20.0	 -20.0	 1.0	 40.33056631	 1	 4	 0.0; % NG
	2128	 1.5	 0.0	 20.0	 -20.0	 1.0	 40.0795192	 1	 3	 0.0; % NG
	2129	 84.0	 0.0	 84.0	 -84.0	 1.0	 33.6463986922	 1	 168	 0.0; % PEL
	2130	 60.0	 0.0	 60.0	 -60.0	 1.0	 33.3273031253	 1	 120	 0.0; % NG
	2131	 79.5	 0.0	 80.0	 -80.0	 1.0	 34.2333408685	 1	 159	 0.0; % NG
	2132	 1.0	 8.4	 30.0	 -13.2	 1.0	 37.7499579499	 1	 2	 0.0; % PEL
	2133	 0.5	 10.0	 40.0	 -20.0	 1.0	 53.9771218854	 1	 1	 0.0; % COW
	2134	 1.5	 10.0	 70.0	 -50.0	 1.0	 169.17400955	 1	 3	 0.0; % NG
	2135	 2.0	 5.0	 80.0	 -70.0	 1.0	 175.344738018	 1	 4	 0.0; % COW
	2136	 2.0	 10.0	 80.0	 -60.0	 1.0	 168.121105693	 1	 4	 0.0; % NG
	2138	 102.0	 0.0	 102.0	 -102.0	 1.0	 33.7659113865	 1	 204	 0.0; % NG
	2139	 90.5	 0.0	 91.0	 -91.0	 1.0	 36.76534479	 1	 181	 0.0; % NG
	2140	 99.0	 0.0	 99.0	 -99.0	 1.0	 67.9893259308	 1	 198	 0.0; % NG
	2142	 1.0	 15.0	 70.0	 -40.0	 1.0	 68.3699770729	 1	 2	 0.0; % PEL
	2143	 0.5	 15.0	 70.0	 -40.0	 1.0	 66.635863774	 1	 1	 0.0; % PEL
	2144	 1.0	 15.0	 70.0	 -40.0	 1.0	 67.2894188494	 1	 2	 0.0; % PEL
	2148	 9.0	 -5.0	 10.0	 -20.0	 1.0	 83.725310623	 1	 18	 0.0; % NG
	2329	 2.0	 5.0	 30.0	 -20.0	 1.0	 65.7624427797	 1	 4	 0.0; % NG
	2330	 1.5	 5.0	 20.0	 -10.0	 1.0	 36.1447293924	 1	 3	 0.0; % NG
	2331	 1.0	 0.0	 20.0	 -20.0	 1.0	 32.9465583476	 1	 2	 0.0; % NG
	2332	 0.5	 -5.0	 10.0	 -20.0	 1.0	 34.0468555721	 1	 1	 0.0; % COW
	2333	 0.5	 0.0	 10.0	 -10.0	 1.0	 16.3866927561	 1	 1	 0.0; % COW
	2334	 1.0	 5.0	 20.0	 -10.0	 1.0	 32.5552539895	 1	 2	 0.0; % COW
	2335	 2.0	 5.0	 20.0	 -10.0	 1.0	 31.9203887789	 1	 4	 0.0; % NG
	2250	 701.5	 0.0	 702.0	 -702.0	 1.0	 5.43358585262	 1	 1403	 0.0; % NG
];

%% generator cost data
%	2	startup	shutdown	n	c(n-1)	...	c0
mpc.gencost = [
	2	 0.0	 0.0	 3	   0.000000	   0.001000	   0.000000; % NG
	2	 0.0	 0.0	 3	   0.000000	   0.001000	   0.000000; % COW
	2	 0.0	 0.0	 3	   0.000000	   0.001000	   0.000000; % NG
	2	 0.0	 0.0	 3	   0.000000	   0.001000	   0.000000; % PEL
	2	 0.0	 0.0	 3	   0.000000	   0.001000	   0.000000; % NG
	2	 0.0	 0.0	 3	   0.000000	   0.001000	   0.000000; % COW
	2	 0.0	 0.0	 3	   0.000000	   0.001000	   0.000000; % NG
	2	 100.0	 0.0	 3	   0.000000	  12.021005	   0.000000; % NG
	2	 0.0	 0.0	 3	   0.000000	   0.001000	   0.000000; % NG
	2	 0.0	 0.0	 3	   0.000000	   0.001000	   0.000000; % NG
	2	 0.0	 0.0	 3	   0.000000	   0.001000	   0.000000; % NG
	2	 0.0	 0.0	 3	   0.000000	   0.001000	   0.000000; % NG
	2	 0.0	 0.0	 3	   0.000000	   0.001000	   0.000000; % PEL
	2	 0.0	 0.0	 3	   0.000000	   0.001000	   0.000000; % NG
	2	 0.0	 0.0	 3	   0.000000	   0.001000	   0.000000; % NG
	2	 0.0	 0.0	 3	   0.000000	   0.001000	   0.000000; % PEL
	2	 0.0	 0.0	 3	   0.000000	   0.001000	   0.000000; % COW
	2	 0.0	 0.0	 3	   0.000000	   0.001000	   0.000000; % NG
	2	 0.0	 0.0	 3	   0.000000	   0.001000	   0.000000; % COW
	2	 0.0	 0.0	 3	   0.000000	   0.001000	   0.000000; % NG
	2	 0.0	 0.0	 3	   0.000000	   0.001000	   0.000000; % NG
	2	 100.0	 0.0	 3	   0.000000	  12.021005	   0.000000; % NG
	2	 0.0	 0.0	 3	   0.000000	   0.001000	   0.000000; % NG
	2	 0.0	 0.0	 3	   0.000000	   0.001000	   0.000000; % PEL
	2	 0.0	 0.0	 3	   0.000000	   0.001000	   0.000000; % PEL
	2	 0.0	 0.0	 3	   0.000000	   0.001000	   0.000000; % PEL
	2	 0.0	 0.0	 3	   0.000000	   0.001000	   0.000000; % NG
	2	 0.0	 0.0	 3	   0.000000	   0.001000	   0.000000; % NG
	2	 0.0	 0.0	 3	   0.000000	   0.001000	   0.000000; % NG
	2	 100.0	 0.0	 3	   0.000000	  12.021005	   0.000000; % NG
	2	 0.0	 0.0	 3	   0.000000	   0.001000	   0.000000; % COW
	2	 0.0	 0.0	 3	   0.000000	   0.001000	   0.000000; % COW
	2	 0.0	 0.0	 3	   0.000000	   0.001000	   0.000000; % COW
	2	 0.0	 0.0	 3	   0.000000	   0.001000	   0.000000; % NG
	2	 100.0	 0.0	 3	   0.000000	   9.921005	   0.000000; % NG
];

%% branch data
%	fbus	tbus	r	x	b	rateA	rateB	rateC	ratio	angle	status	angmin	angmax
mpc.branch = [
	2152	 2156	 0.00834450528496	 0.0371057756822	 0.00388866725242	 160.0	 160.0	 160.0	 0.0	 0.0	 1	 -30.0	 30.0;
	2153	 2156	 0.006612602031	 0.017109146624	 0.00165633454293	 115.0	 115.0	 115.0	 0.0	 0.0	 1	 -30.0	 30.0;
	2153	 2156	 0.00550651928481	 0.0149698399927	 0.00172714817226	 119.0	 119.0	 119.0	 0.0	 0.0	 1	 -30.0	 30.0;
	2155	 2153	 0.01393972708	 0.102926742936	 0.0123074726317	 218.0	 218.0	 218.0	 0.0	 0.0	 1	 -30.0	 30.0;
	2156	 2157	 0.02545334659	 0.0721554038461	 0.00680053036105	 122.0	 122.0	 122.0	 0.0	 0.0	 1	 -30.0	 30.0;
	2157	 2172	 0.0299991099129	 0.0854487027202	 0.00844874817832	 122.0	 122.0	 122.0	 0.0	 0.0	 1	 -30.0	 30.0;
	2158	 2153	 0.0446317172529	 0.0702443516722	 0.00557138734468	 85.0	 85.0	 85.0	 0.0	 0.0	 1	 -30.0	 30.0;
	2160	 2166	 0.00221781807094	 0.0150542312874	 0.00163558931096	 207.0	 207.0	 207.0	 0.0	 0.0	 1	 -30.0	 30.0;
	2161	 2166	 0.00979486179023	 0.0249472030214	 0.00296859624928	 114.0	 114.0	 114.0	 0.0	 0.0	 1	 -30.0	 30.0;
	2161	 2167	 0.022569879982	 0.0598841777916	 0.00660973093147	 117.0	 117.0	 117.0	 0.0	 0.0	 1	 -30.0	 30.0;
	2162	 2163	 0.0368750920058	 0.0712716392955	 0.0162320841232	 97.0	 97.0	 97.0	 0.0	 0.0	 1	 -30.0	 30.0;
	2162	 2164	 0.133172727607	 0.24271488602	 0.0159793607747	 93.0	 93.0	 93.0	 0.0	 0.0	 1	 -30.0	 30.0;
	2162	 2229	 0.0125014987677	 0.0906216808787	 0.0340298995427	 215.0	 215.0	 215.0	 0.0	 0.0	 1	 -30.0	 30.0;
	2163	 2164	 0.100609148637	 0.176248238354	 0.0157835522057	 91.0	 91.0	 91.0	 0.0	 0.0	 1	 -30.0	 30.0;
	2164	 2165	 0.00386886836307	 0.0103769073008	 0.00115304896291	 118.0	 118.0	 118.0	 0.0	 0.0	 1	 -30.0	 30.0;
	2164	 2166	 0.0548456849238	 0.146051026867	 0.0158653891447	 117.0	 117.0	 117.0	 0.0	 0.0	 1	 -30.0	 30.0;
	2164	 2226	 0.0322012007642	 0.0849837029603	 0.0090492049762	 117.0	 117.0	 117.0	 0.0	 0.0	 1	 -30.0	 30.0;
	2165	 2167	 0.0326571041771	 0.0841055311883	 0.00955746842655	 115.0	 115.0	 115.0	 0.0	 0.0	 1	 -30.0	 30.0;
	2166	 2168	 0.00948450876777	 0.050407684576	 0.00622709612376	 178.0	 178.0	 178.0	 0.0	 0.0	 1	 -30.0	 30.0;
	2166	 2169	 0.0213521373288	 0.0831676316532	 0.00938905109974	 148.0	 148.0	 148.0	 0.0	 0.0	 1	 -30.0	 30.0;
	2166	 2170	 0.00648433744151	 0.0344385667948	 0.00404136947009	 178.0	 178.0	 178.0	 0.0	 0.0	 1	 -30.0	 30.0;
	2166	 2170	 0.00693898262637	 0.0326422499585	 0.00425079271419	 166.0	 166.0	 166.0	 0.0	 0.0	 1	 -30.0	 30.0;
	2168	 2169	 0.0123307894492	 0.032810616942	 0.00347130369578	 117.0	 117.0	 117.0	 0.0	 0.0	 1	 -30.0	 30.0;
	2171	 2172	 0.0301156643856	 0.0796046618723	 0.00849322719584	 117.0	 117.0	 117.0	 0.0	 0.0	 1	 -30.0	 30.0;
	2172	 2227	 0.0438537854483	 0.117773755721	 0.0107526255948	 118.0	 118.0	 118.0	 0.0	 0.0	 1	 -30.0	 30.0;
	2173	 2175	 0.003635470736	 0.00979922927223	 0.00132046023133	 118.0	 118.0	 118.0	 0.0	 0.0	 1	 -30.0	 30.0;
	2173	 2228	 0.00817779703513	 0.0166973252526	 0.0016922451392	 100.0	 100.0	 100.0	 0.0	 0.0	 1	 -30.0	 30.0;
	2174	 2175	 0.0034524341182	 0.00941777568866	 0.00106530630905	 119.0	 119.0	 119.0	 0.0	 0.0	 1	 -30.0	 30.0;
	2176	 2177	 0.00544398463072	 0.018950843333	 0.00130446062224	 138.0	 138.0	 138.0	 0.0	 0.0	 1	 -30.0	 30.0;
	2176	 2178	 0.016235662227	 0.0728054892606	 0.0019680678417	 161.0	 161.0	 161.0	 0.0	 0.0	 1	 -30.0	 30.0;
	2176	 2224	 0.0394408773044	 0.137952632759	 0.00414441901073	 138.0	 138.0	 138.0	 0.0	 0.0	 1	 -30.0	 30.0;
	2177	 2224	 0.0473672257593	 0.159966352393	 0.00395088193268	 135.0	 135.0	 135.0	 0.0	 0.0	 1	 -30.0	 30.0;
	2178	 2238	 0.0341895124321	 0.134301567013	 0.0182315273713	 148.0	 148.0	 148.0	 0.0	 0.0	 1	 -30.0	 30.0;
	2180	 2126	 0.0507059526851	 0.686745299128	 0.00135414011457	 46.0	 46.0	 46.0	 1.0	 0.0	 1	 -30.0	 30.0;
	2180	 2189	 0.0392573585555	 0.058002956482	 0.00494046371803	 82.0	 82.0	 82.0	 0.0	 0.0	 1	 -30.0	 30.0;
	2180	 2323	 0.0300776910052	 0.0518558105006	 0.00394640633369	 90.0	 90.0	 90.0	 0.0	 0.0	 1	 -30.0	 30.0;
	2183	 2217	 0.0220924302279	 0.0648336640048	 0.0060613908166	 124.0	 124.0	 124.0	 0.0	 0.0	 1	 -30.0	 30.0;
	2183	 2323	 0.0189442508494	 0.057645648069	 0.00509880770957	 127.0	 127.0	 127.0	 0.0	 0.0	 1	 -30.0	 30.0;
	2217	 2323	 0.0418895350015	 0.11629788021	 0.0109106452358	 120.0	 120.0	 120.0	 0.0	 0.0	 1	 -30.0	 30.0;
	2186	 2190	 0.0219553756497	 0.0790700124031	 0.00969959060365	 141.0	 141.0	 141.0	 0.0	 0.0	 1	 -30.0	 30.0;
	2186	 2323	 0.0932669534612	 0.18336831322	 0.0159926383185	 98.0	 98.0	 98.0	 0.0	 0.0	 1	 -30.0	 30.0;
	2186	 2190	 0.0219083921358	 0.0856977156766	 0.00959333997972	 148.0	 148.0	 148.0	 0.0	 0.0	 1	 -30.0	 30.0;
	2186	 2323	 0.0951405162859	 0.176418324059	 0.0165238766949	 94.0	 94.0	 94.0	 0.0	 0.0	 1	 -30.0	 30.0;
	2192	 2198	 0.0113070956447	 0.050853422248	 0.00663802909275	 161.0	 161.0	 161.0	 0.0	 0.0	 1	 -30.0	 30.0;
	2192	 2217	 0.0809689857371	 0.159780265158	 0.0563546512737	 98.0	 98.0	 98.0	 0.0	 0.0	 1	 -30.0	 30.0;
	2193	 2194	 0.00320447570577	 0.0137512614819	 0.00177820065775	 157.0	 157.0	 157.0	 0.0	 0.0	 1	 -30.0	 30.0;
	2193	 2194	 0.00322901010886	 0.0138602282577	 0.00163753939091	 157.0	 157.0	 157.0	 0.0	 0.0	 1	 -30.0	 30.0;
	2193	 2194	 0.00161342752121	 0.0114039842253	 0.00120377232681	 212.0	 212.0	 212.0	 0.0	 0.0	 1	 -30.0	 30.0;
	2193	 2195	 0.00466756014707	 0.0220930798219	 0.0026082038961	 166.0	 166.0	 166.0	 0.0	 0.0	 1	 -30.0	 30.0;
	2193	 2205	 0.0160258609959	 0.0445072908171	 0.00487364297231	 120.0	 120.0	 120.0	 0.0	 0.0	 1	 -30.0	 30.0;
	2193	 2206	 0.01882210075	 0.0513597795757	 0.00927028024764	 119.0	 119.0	 119.0	 0.0	 0.0	 1	 -30.0	 30.0;
	2193	 2190	 0.0205710355764	 0.0578426182695	 0.00568336299875	 121.0	 121.0	 121.0	 0.0	 0.0	 1	 -30.0	 30.0;
	2194	 2195	 0.0035544225969	 0.0115137614379	 0.00130740937202	 132.0	 132.0	 132.0	 0.0	 0.0	 1	 -30.0	 30.0;
	2194	 10112	 0.00281675531511	 0.526563840181	 0.0714626713993	 60.0	 60.0	 60.0	 0.9877	 0.0	 1	 -30.0	 30.0;
	2194	 2190	 0.021964985167	 0.0641314318582	 0.000604994296571	 124.0	 124.0	 124.0	 0.0	 0.0	 1	 -30.0	 30.0;
	2195	 2198	 0.00231737132412	 0.0100412761865	 0.00106770930917	 157.0	 157.0	 157.0	 0.0	 0.0	 1	 -30.0	 30.0;
	2198	 2203	 0.0160672604064	 0.0437558473473	 0.00468396638525	 119.0	 119.0	 119.0	 0.0	 0.0	 1	 -30.0	 30.0;
	2198	 2212	 0.0285963948401	 0.0732199230748	 0.00825107615814	 115.0	 115.0	 115.0	 0.0	 0.0	 1	 -30.0	 30.0;