%%%%%%%%%%%%%%%%%%%%%%%%%%%%%%%%%%%%%%%%%%%%%%%%%%%%%%%%%%%%%%%%%%%%%%%%%%%
%%%%                                                                  %%%%%
%%%%    IEEE PES Power Grid Library - Optimal Power Flow - v21.07     %%%%%
%%%%          (https://github.com/power-grid-lib/pglib-opf)           %%%%%
%%%%             Benchmark Group - Active Power Increase              %%%%%
%%%%                         29 - July - 2021                         %%%%%
%%%%                                                                  %%%%%
%%%%%%%%%%%%%%%%%%%%%%%%%%%%%%%%%%%%%%%%%%%%%%%%%%%%%%%%%%%%%%%%%%%%%%%%%%%
function mpc = pglib_opf_case8387_pegase__api
mpc.version = '2';
mpc.baseMVA = 100.0;

%% bus data
%	bus_i	type	Pd	Qd	Gs	Bs	area	Vm	Va	baseKV	zone	Vmax	Vmin
mpc.bus = [
	1	 1	 409.56	 98.50	 0.0	 0.0	 1	    1.00000	    0.00000	 220.0	 1	    1.10000	    0.90000;
	2	 1	 163.43	 48.80	 0.0	 0.0	 1	    1.00000	    0.00000	 220.0	 1	    1.10000	    0.90000;
	3	 1	 185.52	 23.40	 0.0	 0.0	 1	    1.01394	    0.00000	 220.0	 1	    1.12789	    0.90000;
	4	 1	 49.73	 14.00	 0.0	 0.0	 1	    1.00000	    0.00000	 220.0	 1	    1.10000	    0.90000;
	5	 2	 371.67	 53.10	 0.0	 20.0	 1	    1.01328	    0.00000	 380.0	 1	    1.12656	    0.90000;
	6	 1	 33.59	 10.30	 0.0	 0.0	 1	    1.00000	    0.00000	 110.0	 1	    1.10000	    0.90000;
	7	 1	 145.03	 24.70	 0.0	 0.0	 1	    1.03048	    0.00000	 220.0	 1	    1.16095	    0.90000;
	8	 1	 0.0	 0.0	 0.0	 11.29798	 1	    1.00000	    0.00000	 150.0	 1	    1.10000	    0.90000;
	9	 1	 -6.11	 2.00	 0.0	 0.0	 1	    1.00252	    0.00000	 150.0	 1	    1.10505	    0.90000;
	10	 2	 9.21	 5.00	 0.0	 0.0	 1	    1.00000	    0.00000	 220.0	 1	    1.10000	    0.90000;
	11	 1	 14.61	 14.80	 0.0	 0.0	 1	    1.03345	    0.00000	 380.0	 1	    1.16690	    0.90000;
	12	 1	 64.58	 26.70	 0.0	 0.0	 1	    1.00668	    0.00000	 220.0	 1	    1.11337	    0.90000;
	13	 1	 73.25	 12.10	 0.0	 0.0	 1	    1.00000	    0.00000	 220.0	 1	    1.10000	    0.90000;
	14	 2	 0.0	 0.0	 0.0	 0.0	 1	    1.00000	    0.00000	 380.0	 1	    1.10000	    0.90000;
	15	 1	 27.41	 7.50	 0.0	 0.0	 1	    1.00000	    0.00000	 110.0	 1	    1.10000	    0.90000;
	16	 1	 174.47	 39.30	 0.0	 0.0	 1	    1.02680	    0.00000	 220.0	 1	    1.15360	    0.90000;
	17	 1	 0.0	 0.0	 0.0	 0.0	 1	    1.02308	    0.00000	 220.0	 1	    1.14616	    0.90000;
	18	 1	 21.24	 7.10	 0.0	 0.0	 1	    1.00000	    0.00000	 110.0	 1	    1.10000	    0.90000;
	19	 1	 18.64	 5.70	 0.0	 0.0	 1	    1.00000	    0.00000	 110.0	 1	    1.10000	    0.90000;
	20	 2	 0.0	 0.0	 0.0	 0.0	 1	    1.00000	    0.00000	 220.0	 1	    1.10000	    0.90000;
	21	 1	 181.07	 54.80	 0.0	 0.0	 1	    1.02004	    0.00000	 380.0	 1	    1.14008	    0.90000;
	22	 1	 0.0	 0.0	 0.0	 0.0	 1	    1.02105	    0.00000	 380.0	 1	    1.14211	    0.90000;
	23	 1	 0.0	 0.0	 0.0	 0.0	 1	    1.00000	    0.00000	 150.0	 1	    1.10000	    0.90000;
	24	 1	 165.49	 49.40	 0.0	 0.0	 1	    1.01093	    0.00000	 380.0	 1	    1.12186	    0.90000;
	25	 1	 0.0	 0.0	 0.0	 0.0	 1	    1.00000	    0.00000	 150.0	 1	    1.10000	    0.90000;
	26	 1	 75.41	 43.20	 0.0	 0.0	 1	    0.98986	    0.00000	 150.0	 1	    1.10000	    0.87973;
	27	 2	 0.0	 0.0	 0.0	 0.0	 1	    1.00000	    0.00000	 220.0	 1	    1.10000	    0.90000;
	28	 2	 0.0	 0.0	 0.0	 0.0	 1	    1.00000	    0.00000	 220.0	 1	    1.10000	    0.90000;
	29	 1	 14.63	 4.90	 0.0	 0.0	 1	    1.00310	    0.00000	 110.0	 1	    1.10621	    0.90000;
	30	 1	 11.38	 3.50	 0.0	 0.0	 1	    1.01172	    0.00000	 110.0	 1	    1.12345	    0.90000;
	31	 1	 0.0	 0.0	 0.122998	 0.0	 1	    1.00756	    0.00000	 220.0	 1	    1.11512	    0.90000;
	32	 1	 9.97	 2.60	 0.0	 0.0	 1	    1.00000	    0.00000	 110.0	 1	    1.10000	    0.90000;
	33	 1	 46.27	 12.80	 0.0	 0.0	 1	    1.02886	    0.00000	 220.0	 1	    1.15771	    0.90000;
	34	 2	 0.0	 0.0	 0.0	 0.0	 1	    1.00000	    0.00000	 150.0	 1	    1.10000	    0.90000;
	35	 2	 26.00	 7.80	 0.0	 0.0	 1	    1.00000	    0.00000	 110.0	 1	    1.10000	    0.90000;
	36	 1	 22.54	 7.90	 0.0	 0.0	 1	    1.01930	    0.00000	 380.0	 1	    1.13861	    0.90000;
	37	 1	 0.0	 0.0	 0.0	 0.0	 1	    1.03070	    0.00000	 220.0	 1	    1.16139	    0.90000;
	38	 1	 10.94	 3.70	 0.0	 0.0	 1	    1.00689	    0.00000	 110.0	 1	    1.11378	    0.90000;
	39	 1	 10.84	 2.70	 0.0	 0.0	 1	    1.00000	    0.00000	 110.0	 1	    1.10000	    0.90000;
	40	 1	 6.31	 0.00	 0.0	 0.0	 1	    1.00000	    0.00000	 110.0	 1	    1.10000	    0.90000;
	41	 1	 3.14	 0.90	 0.0	 0.0	 1	    1.00000	    0.00000	 110.0	 1	    1.10000	    0.90000;
	42	 2	 0.0	 0.0	 0.0	 0.0	 1	    1.00652	    0.00000	 220.0	 1	    1.11304	    0.90000;
	43	 2	 164.30	 48.30	 0.0	 0.0	 1	    1.00000	    0.00000	 220.0	 1	    1.10000	    0.90000;
	44	 1	 138.11	 31.80	 0.0	 0.0	 1	    1.00986	    0.00000	 150.0	 1	    1.11972	    0.90000;
	45	 1	 52.66	 16.10	 0.0	 0.0	 1	    1.02079	    0.00000	 220.0	 1	    1.14158	    0.90000;
	46	 1	 110.50	 -26.80	 0.0	 0.0	 1	    1.01425	    0.00000	 220.0	 1	    1.12849	    0.90000;
	47	 1	 0.0	 0.0	 0.0	 0.0	 1	    1.00000	    0.00000	 220.0	 1	    1.10000	    0.90000;
	48	 1	 151.53	 79.70	 0.0	 0.0	 1	    1.00000	    0.00000	 220.0	 1	    1.10000	    0.90000;
	49	 1	 0.0	 0.0	 0.0	 0.0	 1	    1.01785	    0.00000	 380.0	 1	    1.13570	    0.90000;
	50	 1	 129.01	 20.70	 0.0	 0.0	 1	    1.01293	    0.00000	 220.0	 1	    1.12587	    0.90000;
	51	 2	 5.53	 1.30	 0.0	 0.0	 1	    1.00000	    0.00000	 110.0	 1	    1.10000	    0.90000;
	52	 1	 0.0	 0.0	 0.0	 0.0	 1	    1.00000	    0.00000	 380.0	 1	    1.10000	    0.90000;
	53	 1	 0.0	 0.0	 0.0	 0.0	 1	    1.00000	    0.00000	 110.0	 1	    1.10000	    0.90000;
	54	 1	 203.37	 110.20	 0.0	 20.0	 1	    1.00663	    0.00000	 380.0	 1	    1.11326	    0.90000;
	55	 1	 16.14	 5.50	 0.0	 0.0	 1	    1.00000	    0.00000	 110.0	 1	    1.10000	    0.90000;
	56	 1	 -18.52	 6.10	 0.0	 0.0	 1	    1.00000	    0.00000	 150.0	 1	    1.10000	    0.90000;
	57	 1	 4.98	 1.70	 0.0	 0.0	 1	    1.01755	    0.00000	 110.0	 1	    1.13511	    0.90000;
	58	 1	 0.0	 0.0	 0.090701	 0.0	 1	    1.02465	    0.00000	 380.0	 1	    1.14929	    0.90000;
	59	 1	 11.70	 5.10	 0.0	 0.0	 1	    1.00000	    0.00000	 110.0	 1	    1.10000	    0.90000;
	60	 1	 68.05	 20.50	 0.0	 0.0	 1	    1.01094	    0.00000	 150.0	 1	    1.12187	    0.90000;
	61	 1	 136.70	 42.40	 0.0	 0.0	 1	    1.02815	    0.00000	 150.0	 1	    1.15630	    0.90000;
	62	 1	 6.91	 -4.60	 0.0	 0.0	 1	    1.00000	    0.00000	 220.0	 1	    1.10000	    0.90000;
	63	 1	 17.01	 5.20	 0.0	 0.0	 1	    1.00000	    0.00000	 110.0	 1	    1.10000	    0.90000;
	64	 1	 0.0	 0.0	 0.0	 17.1282	 1	    1.00000	    0.00000	 150.0	 1	    1.10000	    0.90000;
	65	 1	 41.93	 6.10	 0.0	 0.0	 1	    1.00377	    0.00000	 220.0	 1	    1.10755	    0.90000;
	66	 1	 23.95	 10.70	 0.0	 0.0	 1	    1.02891	    0.00000	 220.0	 1	    1.15781	    0.90000;
	67	 1	 0.0	 0.0	 0.0	 0.0	 1	    1.00000	    0.00000	 220.0	 1	    1.10000	    0.90000;
	68	 1	 0.0	 0.0	 0.0	 0.0	 1	    1.00000	    0.00000	 110.0	 1	    1.10000	    0.90000;
	69	 1	 150.23	 136.70	 0.0	 0.0	 1	    1.00000	    0.00000	 380.0	 1	    1.10000	    0.90000;
	70	 2	 148.60	 66.40	 0.0	 0.0	 1	    1.00412	    0.00000	 220.0	 1	    1.10824	    0.90000;
	71	 2	 73.36	 19.70	 0.0	 0.0	 1	    1.00000	    0.00000	 150.0	 1	    1.10000	    0.90000;
	72	 1	 23.84	 5.10	 0.0	 0.0	 1	    1.00000	    0.00000	 110.0	 1	    1.20000	    0.80000;
	73	 1	 0.0	 0.0	 0.0	 0.0	 1	    1.00000	    0.00000	 220.0	 1	    1.10000	    0.90000;
	74	 1	 1.08	 0.30	 0.0	 0.0	 1	    1.01642	    0.00000	 110.0	 1	    1.13284	    0.90000;
	75	 1	 0.0	 0.0	 0.0	 0.0	 1	    1.00000	    0.00000	 150.0	 1	    1.10000	    0.90000;
	76	 1	 23.30	 5.10	 0.0	 0.0	 1	    1.00000	    0.00000	 110.0	 1	    1.10000	    0.90000;
	77	 1	 77.91	 28.80	 0.0	 0.0	 1	    1.01750	    0.00000	 220.0	 1	    1.13500	    0.90000;
	78	 1	 0.0	 0.0	 0.173359	 0.0	 1	    1.00000	    0.00000	 380.0	 1	    1.10000	    0.90000;
	79	 2	 395.27	 116.50	 0.0	 0.0	 1	    1.00548	    0.00000	 220.0	 1	    1.11095	    0.90000;
	80	 1	 0.0	 0.0	 0.0	 0.0	 1	    1.02857	    0.00000	 150.0	 1	    1.15715	    0.90000;
	81	 1	 208.78	 73.30	 0.0	 0.0	 1	    1.01310	    0.00000	 380.0	 1	    1.12619	    0.90000;
	82	 1	 18.96	 6.30	 0.0	 0.0	 1	    1.01760	    0.00000	 110.0	 1	    1.13520	    0.90000;
	83	 1	 35.87	 12.00	 0.0	 0.0	 1	    1.00000	    0.00000	 110.0	 1	    1.10000	    0.90000;
	84	 1	 43.77	 25.00	 0.0	 0.0	 1	    1.00000	    0.00000	 150.0	 1	    1.10000	    0.90000;
	85	 2	 230.43	 61.70	 0.0	 0.0	 1	    1.01207	    0.00000	 220.0	 1	    1.12414	    0.90000;
	86	 1	 0.0	 0.0	 0.0	 0.0	 1	    1.01340	    0.00000	 380.0	 1	    1.12681	    0.90000;
	87	 1	 98.17	 25.50	 0.0	 0.0	 1	    1.00743	    0.00000	 220.0	 1	    1.11487	    0.90000;
	88	 1	 176.30	 -58.90	 0.0	 0.0	 1	    1.02562	    0.00000	 380.0	 1	    1.15124	    0.90000;
	89	 1	 38.90	 22.30	 0.0	 0.0	 1	    1.00000	    0.00000	 150.0	 1	    1.10000	    0.90000;
	90	 1	 0.0	 0.0	 0.0	 0.0	 1	    1.00000	    0.00000	 150.0	 1	    1.10000	    0.90000;
	91	 1	 0.0	 0.0	 0.0	 0.0	 1	    1.00000	    0.00000	 220.0	 1	    1.10000	    0.90000;
	92	 1	 70.43	 40.30	 0.0	 0.0	 1	    1.00000	    0.00000	 150.0	 1	    1.10000	    0.90000;
	93	 1	 51.36	 -8.80	 0.0	 0.0	 1	    1.00000	    0.00000	 220.0	 1	    1.10000	    0.90000;
	94	 1	 0.0	 0.0	 0.0	 0.0	 1	    1.01449	    0.00000	 380.0	 1	    1.12898	    0.90000;
	95	 1	 0.0	 0.0	 0.0	 0.0	 1	    1.04155	    0.00000	 380.0	 1	    1.18311	    0.90000;
	96	 2	 0.0	 0.0	 0.0	 0.0	 1	    1.00954	    0.00000	 380.0	 1	    1.11908	    0.90000;
	97	 1	 4.12	 1.30	 0.0	 0.0	 1	    1.00000	    0.00000	 110.0	 1	    1.10000	    0.90000;
	98	 1	 0.0	 0.0	 0.0	 0.0	 1	    1.00000	    0.00000	 150.0	 1	    1.10000	    0.90000;
	99	 1	 66.10	 36.00	 0.0	 0.0	 1	    1.00000	    0.00000	 220.0	 1	    1.10000	    0.90000;
	100	 1	 0.0	 0.0	 0.0	 0.0	 1	    1.01426	    0.00000	 220.0	 1	    1.12853	    0.90000;
	101	 1	 0.0	 0.0	 0.0	 0.0	 1	    1.02297	    0.00000	 380.0	 1	    1.14595	    0.90000;
	102	 1	 0.0	 0.0	 0.0	 0.0	 1	    1.04218	    0.00000	 220.0	 1	    1.18435	    0.90000;
	103	 1	 1.95	 0.70	 0.0	 0.0	 1	    1.00000	    0.00000	 110.0	 1	    1.10000	    0.90000;
	104	 1	 43.34	 16.00	 0.0	 0.0	 1	    1.00000	    0.00000	 110.0	 1	    1.10000	    0.90000;
	105	 1	 0.0	 0.0	 0.0	 0.0	 1	    1.00980	    0.00000	 380.0	 1	    1.11960	    0.90000;
	106	 1	 0.0	 0.0	 0.0	 0.0	 1	    1.01150	    0.00000	 150.0	 1	    1.12300	    0.90000;
	107	 1	 48.87	 14.10	 0.0	 0.0	 1	    1.00000	    0.00000	 110.0	 1	    1.10000	    0.90000;
	108	 1	 0.0	 0.0	 0.0	 0.0	 1	    1.00000	    0.00000	 220.0	 1	    1.10000	    0.90000;
	109	 2	 0.0	 0.0	 0.0	 0.0	 1	    1.00665	    0.00000	 220.0	 1	    1.11331	    0.90000;
	110	 2	 0.0	 0.0	 0.0	 0.0	 1	    1.01601	    0.00000	 220.0	 1	    1.13202	    0.90000;
	111	 2	 8.88	 4.40	 0.0	 0.0	 1	    1.00000	    0.00000	 110.0	 1	    1.10000	    0.90000;
	112	 1	 0.0	 0.0	 0.0	 0.0	 1	    1.01109	    0.00000	 220.0	 1	    1.12219	    0.90000;
	113	 1	 25.68	 12.70	 0.0	 0.0	 1	    1.01454	    0.00000	 220.0	 1	    1.12909	    0.90000;
	114	 1	 131.94	 7.40	 0.0	 0.0	 1	    1.00959	    0.00000	 220.0	 1	    1.11918	    0.90000;
	115	 1	 0.0	 0.0	 0.156015	 0.0	 1	    1.02719	    0.00000	 380.0	 1	    1.15438	    0.90000;
	116	 1	 51.25	 16.40	 0.0	 0.0	 1	    1.00000	    0.00000	 110.0	 1	    1.10000	    0.90000;
	117	 1	 0.0	 0.0	 0.0	 0.0	 1	    1.02734	    0.00000	 380.0	 1	    1.15468	    0.90000;
	118	 1	 41.28	 12.50	 0.0	 0.0	 1	    1.00880	    0.00000	 150.0	 1	    1.11760	    0.90000;
	119	 1	 141.35	 84.90	 0.0	 0.0	 1	    1.00000	    0.00000	 220.0	 1	    1.10000	    0.90000;
	120	 1	 8.56	 2.60	 0.0	 0.0	 1	    1.00000	    0.00000	 110.0	 1	    1.10000	    0.90000;
	121	 2	 51.03	 78.00	 0.0	 0.0	 1	    1.00000	    0.00000	 150.0	 1	    1.10000	    0.90000;
	122	 1	 -75.38	 7.80	 0.0	 0.0	 1	    1.02934	    0.00000	 380.0	 1	    1.15868	    0.90000;
	123	 1	 0.0	 0.0	 0.0	 0.0	 1	    1.00000	    0.00000	 380.0	 1	    1.10000	    0.90000;
	124	 1	 0.0	 0.0	 0.0	 0.0	 1	    1.00000	    0.00000	 220.0	 1	    1.10000	    0.90000;
	125	 2	 109.21	 49.30	 0.0	 0.0	 1	    1.00263	    0.00000	 220.0	 1	    1.10525	    0.90000;
	126	 2	 0.0	 0.0	 0.0	 0.0	 1	    1.01655	    0.00000	 220.0	 1	    1.13311	    0.90000;
	127	 1	 0.0	 0.0	 0.0	 0.0	 1	    1.01901	    0.00000	 150.0	 1	    1.13802	    0.90000;
	128	 1	 0.0	 0.0	 0.0	 0.0	 1	    1.00000	    0.00000	 380.0	 1	    1.10000	    0.90000;
	129	 1	 41.50	 5.60	 0.0	 0.0	 1	    1.02298	    0.00000	 220.0	 1	    1.14596	    0.90000;
	130	 1	 291.80	 65.70	 0.0	 0.0	 1	    1.03024	    0.00000	 120.0	 1	    1.16048	    0.90000;
	131	 2	 173.17	 3.30	 0.0	 0.0	 1	    1.02245	    0.00000	 220.0	 1	    1.14491	    0.90000;
	132	 1	 35.00	 12.00	 0.0	 0.0	 1	    1.01605	    0.00000	 220.0	 1	    1.13210	    0.90000;
	133	 1	 108.34	 45.10	 0.0	 0.0	 1	    1.00781	    0.00000	 380.0	 1	    1.11561	    0.90000;
	134	 2	 13.33	 3.90	 0.0	 0.0	 1	    1.03188	    0.00000	 220.0	 1	    1.16377	    0.90000;
	135	 1	 0.0	 0.0	 0.0	 0.0	 1	    1.01475	    0.00000	 150.0	 1	    1.12950	    0.90000;
	136	 1	 0.0	 0.0	 0.0	 0.0	 1	    1.00000	    0.00000	 110.0	 1	    1.10000	    0.90000;
	137	 1	 0.0	 0.0	 0.0	 0.0	 1	    1.00000	    0.00000	 110.0	 1	    1.10000	    0.90000;
	138	 1	 43.67	 25.00	 0.0	 0.0	 1	    1.00000	    0.00000	 150.0	 1	    1.10000	    0.90000;
	139	 1	 9.97	 3.30	 0.0	 0.0	 1	    1.00362	    0.00000	 110.0	 1	    1.10724	    0.90000;
	140	 1	 179.67	 60.30	 0.0	 0.0	 1	    1.00000	    0.00000	 220.0	 1	    1.10000	    0.90000;
	141	 1	 0.0	 0.0	 0.0	 0.0	 1	    1.00000	    0.00000	 150.0	 1	    1.10000	    0.90000;
	142	 1	 0.0	 0.0	 0.0	 0.0	 1	    1.00745	    0.00000	 150.0	 1	    1.11491	    0.90000;
	143	 1	 0.0	 0.0	 0.0	 0.0	 1	    1.03352	    0.00000	 380.0	 1	    1.16705	    0.90000;
	144	 2	 164.95	 35.10	 0.0	 0.0	 1	    1.01777	    0.00000	 220.0	 1	    1.13555	    0.90000;
	145	 1	 0.0	 0.0	 0.0	 0.0	 1	    1.01955	    0.00000	 150.0	 1	    1.13909	    0.90000;
	146	 1	 26.80	 -3.70	 0.0	 -25.3011	 1	    1.00905	    0.00000	 380.0	 1	    1.11809	    0.90000;
	147	 2	 0.0	 0.0	 0.0	 0.0	 1	    1.00000	    0.00000	 220.0	 1	    1.10000	    0.90000;
	148	 1	 278.70	 131.10	 0.0	 0.0	 1	    1.00000	    0.00000	 220.0	 1	    1.10000	    0.90000;
	149	 1	 0.0	 0.0	 0.0	 0.0	 1	    1.00000	    0.00000	 150.0	 1	    1.10000	    0.90000;
	150	 1	 0.0	 0.0	 0.0	 0.0	 1	    1.00000	    0.00000	 220.0	 1	    1.10000	    0.90000;
	151	 1	 109.10	 13.20	 0.0	 0.0	 1	    1.04391	    0.00000	 220.0	 1	    1.18781	    0.90000;
	152	 2	 123.28	 11.90	 0.0	 0.0	 1	    1.00000	    0.00000	 220.0	 1	    1.10000	    0.90000;
	153	 2	 113.00	 0.70	 0.0	 0.0	 1	    1.00000	    0.00000	 220.0	 1	    1.10000	    0.90000;
	154	 1	 370.50	 -17.00	 0.0	 0.0	 1	    1.02827	    0.00000	 220.0	 1	    1.15654	    0.90000;
	155	 1	 10.73	 3.20	 0.0	 0.0	 1	    1.00000	    0.00000	 110.0	 1	    1.10000	    0.90000;
	156	 2	 0.0	 0.0	 0.0	 0.0	 1	    1.00000	    0.00000	 150.0	 1	    1.10000	    0.90000;
	157	 1	 102.71	 36.20	 0.0	 0.0	 1	    1.00000	    0.00000	 220.0	 1	    1.10000	    0.90000;
	158	 1	 87.77	 48.00	 0.0	 0.0	 1	    1.00000	    0.00000	 150.0	 1	    1.10000	    0.90000;
	159	 2	 227.72	 159.20	 0.0	 0.0	 1	    1.01645	    0.00000	 380.0	 1	    1.13289	    0.90000;
	160	 1	 0.0	 0.0	 0.0	 0.0	 1	    1.00000	    0.00000	 110.0	 1	    1.10000	    0.90000;
	161	 1	 59.49	 16.90	 0.0	 0.0	 1	    1.00000	    0.00000	 110.0	 1	    1.10000	    0.90000;
	162	 1	 20.91	 26.00	 0.0	 0.0	 1	    1.00000	    0.00000	 220.0	 1	    1.10000	    0.90000;
	163	 1	 0.0	 0.0	 0.0	 0.0	 1	    1.00000	    0.00000	 150.0	 1	    1.10000	    0.90000;
	164	 1	 0.0	 0.0	 0.0	 0.0	 1	    1.01214	    0.00000	 220.0	 1	    1.12428	    0.90000;
	165	 1	 21.56	 6.60	 0.0	 0.0	 1	    1.00000	    0.00000	 110.0	 1	    1.10000	    0.90000;
	166	 1	 61.87	 2.00	 0.0	 0.0	 1	    1.00000	    0.00000	 110.0	 1	    1.10000	    0.90000;
	167	 1	 75.31	 16.00	 0.0	 0.0	 1	    1.03299	    0.00000	 220.0	 1	    1.16597	    0.90000;
	168	 1	 39.87	 13.90	 0.0	 0.0	 1	    1.03077	    0.00000	 220.0	 1	    1.16155	    0.90000;
	169	 2	 5.20	 1.30	 0.0	 0.0	 1	    1.00000	    0.00000	 110.0	 1	    1.10000	    0.90000;
	170	 2	 9.97	 6.00	 0.0	 0.0	 1	    1.00000	    0.00000	 110.0	 1	    1.10000	    0.90000;
	171	 1	 0.0	 0.0	 0.0	 0.0	 1	    1.00512	    0.00000	 220.0	 1	    1.11024	    0.90000;
	172	 2	 0.0	 0.0	 0.0	 0.0	 1	    1.00000	    0.00000	 380.0	 1	    1.10000	    0.90000;
	173	 1	 129.77	 3.70	 0.0	 0.0	 1	    1.00000	    0.00000	 220.0	 1	    1.10000	    0.90000;
	174	 2	 0.0	 0.0	 0.0	 0.0	 1	    1.00389	    0.00000	 150.0	 1	    1.10778	    0.90000;
	175	 2	 82.02	 24.60	 0.0	 0.0	 1	    1.02662	    0.00000	 220.0	 1	    1.15324	    0.90000;
	176	 1	 0.0	 0.0	 0.0	 0.0	 1	    1.03341	    0.00000	 220.0	 1	    1.16682	    0.90000;
	177	 2	 0.0	 0.0	 0.288019	 0.0	 1	    1.00980	    0.00000	 380.0	 1	    1.11959	    0.90000;
	178	 1	 43.02	 11.80	 0.0	 0.0	 1	    1.01333	    0.00000	 220.0	 1	    1.12666	    0.90000;
	179	 1	 93.94	 28.40	 0.0	 0.0	 1	    1.01202	    0.00000	 150.0	 1	    1.12403	    0.90000;
	180	 1	 24.27	 2.10	 0.0	 0.0	 1	    1.00000	    0.00000	 150.0	 1	    1.10000	    0.90000;
	181	 2	 0.0	 0.0	 0.0	 0.0	 1	    1.00385	    0.00000	 220.0	 1	    1.10770	    0.90000;
	182	 1	 120.03	 32.70	 0.0	 0.0	 1	    1.00000	    0.00000	 220.0	 1	    1.10000	    0.90000;
	183	 1	 0.0	 0.0	 0.191685	 0.0	 1	    1.00682	    0.00000	 220.0	 1	    1.11363	    0.90000;
	184	 1	 49.95	 18.20	 0.0	 0.0	 1	    1.01722	    0.00000	 150.0	 1	    1.13444	    0.90000;
	185	 1	 36.84	 12.30	 0.0	 0.0	 1	    1.01882	    0.00000	 110.0	 1	    1.13765	    0.90000;
	186	 2	 348.94	 84.40	 0.0	 0.0	 1	    1.00468	    0.00000	 220.0	 1	    1.10936	    0.90000;
	187	 1	 36.19	 10.00	 0.0	 0.0	 1	    1.00000	    0.00000	 110.0	 1	    1.10000	    0.90000;
	188	 2	 0.0	 0.0	 0.0	 0.0	 1	    1.00000	    0.00000	 110.0	 1	    1.10000	    0.90000;
	189	 1	 0.0	 0.0	 0.0	 0.0	 1	    1.00000	    0.00000	 110.0	 1	    1.10000	    0.90000;
	190	 1	 81.48	 19.20	 0.0	 0.0	 1	    1.00758	    0.00000	 110.0	 1	    1.11516	    0.90000;
	191	 2	 237.68	 77.50	 0.0	 0.0	 1	    1.00634	    0.00000	 220.0	 1	    1.11269	    0.90000;
	192	 1	 40.42	 10.90	 0.0	 0.0	 1	    1.00000	    0.00000	 110.0	 1	    1.20000	    0.80000;
	193	 2	 367.99	 93.80	 0.0	 0.0	 1	    1.01309	    0.00000	 380.0	 1	    1.12617	    0.90000;
	194	 1	 0.0	 0.0	 0.0	 0.0	 1	    1.00000	    0.00000	 110.0	 1	    1.10000	    0.90000;
	195	 1	 168.41	 54.70	 0.0	 0.0	 1	    1.01826	    0.00000	 220.0	 1	    1.13653	    0.90000;
	196	 1	 113.86	 0.10	 0.0	 0.0	 1	    1.01766	    0.00000	 220.0	 1	    1.13531	    0.90000;
	197	 2	 87.66	 21.00	 0.0	 0.0	 1	    1.00321	    0.00000	 220.0	 1	    1.10643	    0.90000;
	198	 2	 0.0	 0.0	 0.0	 0.0	 1	    1.01008	    0.00000	 380.0	 1	    1.12015	    0.90000;
	199	 2	 0.0	 0.0	 0.0	 0.0	 1	    1.03238	    0.00000	 380.0	 1	    1.16475	    0.90000;
	200	 2	 0.0	 0.0	 0.0	 0.0	 1	    1.01916	    0.00000	 380.0	 1	    1.13832	    0.90000;
	201	 2	 190.71	 20.80	 0.0	 0.0	 1	    1.00000	    0.00000	 150.0	 1	    1.10000	    0.90000;
	202	 1	 29.26	 8.80	 0.0	 0.0	 1	    1.00000	    0.00000	 110.0	 1	    1.10000	    0.90000;
	203	 1	 2.82	 0.50	 0.0	 0.0	 1	    1.00000	    0.00000	 110.0	 1	    1.10000	    0.90000;
	204	 1	 0.0	 0.0	 0.0	 0.0	 1	    1.04080	    0.00000	 220.0	 1	    1.18161	    0.90000;
	205	 1	 15.82	 4.80	 0.0	 0.0	 1	    1.00000	    0.00000	 110.0	 1	    1.10000	    0.90000;
	206	 1	 0.0	 0.0	 0.0	 0.0	 1	    1.01103	    0.00000	 220.0	 1	    1.12206	    0.90000;
	207	 1	 -23.43	 57.40	 0.0	 0.0	 1	    1.02443	    0.00000	 150.0	 1	    1.14886	    0.90000;
	208	 1	 461.72	 93.70	 0.0	 0.0	 1	    1.02237	    0.00000	 380.0	 1	    1.14475	    0.90000;
	209	 2	 166.90	 23.30	 0.0	 0.0	 1	    1.00000	    0.00000	 220.0	 1	    1.10000	    0.90000;
	210	 2	 0.0	 0.0	 0.0	 0.0	 1	    1.00601	    0.00000	 110.0	 1	    1.11201	    0.90000;
	211	 1	 0.0	 0.0	 0.0	 0.0	 1	    1.00000	    0.00000	 150.0	 1	    1.10000	    0.90000;
	212	 1	 2.71	 3.80	 0.0	 0.0	 1	    1.00000	    0.00000	 110.0	 1	    1.10000	    0.90000;
	213	 1	 36.84	 4.40	 0.0	 0.0	 1	    1.00000	    0.00000	 110.0	 1	    1.10000	    0.90000;
	214	 1	 49.63	 7.00	 0.0	 0.0	 1	    1.00547	    0.00000	 220.0	 1	    1.11094	    0.90000;
	215	 1	 0.0	 0.0	 0.0	 0.0	 1	    1.01230	    0.00000	 380.0	 1	    1.12459	    0.90000;
	216	 1	 0.0	 0.0	 0.0	 0.0	 1	    1.01529	    0.00000	 220.0	 1	    1.13058	    0.90000;
	217	 2	 49.84	 16.90	 0.0	 0.0	 1	    1.01593	    0.00000	 110.0	 1	    1.13186	    0.90000;
	218	 1	 0.0	 0.0	 0.0	 12.42588	 1	    1.00000	    0.00000	 150.0	 1	    1.10000	    0.90000;
	219	 1	 0.0	 0.0	 0.0	 0.0	 1	    1.00000	    0.00000	 220.0	 1	    1.10000	    0.90000;
	220	 1	 181.72	 18.20	 0.0	 0.0	 1	    1.01733	    0.00000	 220.0	 1	    1.13466	    0.90000;
	221	 1	 0.0	 0.0	 0.0	 0.0	 1	    1.00000	    0.00000	 150.0	 1	    1.10000	    0.90000;
	222	 1	 0.0	 0.0	 0.0	 0.0	 1	    1.00487	    0.00000	 150.0	 1	    1.10975	    0.90000;
	223	 1	 17.99	 5.50	 0.0	 0.0	 1	    1.00000	    0.00000	 110.0	 1	    1.10000	    0.90000;
	224	 2	 142.76	 31.10	 0.0	 0.0	 1	    1.00000	    0.00000	 220.0	 1	    1.20000	    0.80000;
	225	 1	 0.0	 0.0	 0.0	 0.0	 1	    1.00000	    0.00000	 110.0	 1	    1.10000	    0.90000;
	226	 2	 242.66	 73.90	 0.0	 0.0	 1	    1.00382	    0.00000	 380.0	 1	    1.10764	    0.90000;
	227	 1	 0.0	 0.0	 0.0	 0.0	 1	    1.00000	    0.00000	 220.0	 1	    1.10000	    0.90000;
	228	 1	 0.0	 0.0	 0.0	 0.0	 1	    1.00380	    0.00000	 380.0	 1	    1.10759	    0.90000;
	229	 1	 0.0	 0.0	 0.0	 0.0	 1	    1.00309	    0.00000	 220.0	 1	    1.10617	    0.90000;
	230	 1	 0.0	 0.0	 0.0	 0.0	 1	    1.00565	    0.00000	 220.0	 1	    1.11130	    0.90000;
	231	 1	 0.0	 0.0	 0.152776	 0.0	 1	    1.01758	    0.00000	 380.0	 1	    1.13516	    0.90000;
	232	 2	 0.0	 0.0	 0.0	 0.0	 1	    1.02376	    0.00000	 380.0	 1	    1.14752	    0.90000;
	233	 1	 0.0	 0.0	 0.0	 0.0	 1	    1.02867	    0.00000	 220.0	 1	    1.15733	    0.90000;
	234	 1	 123.28	 24.50	 0.0	 0.0	 1	    1.00000	    0.00000	 220.0	 1	    1.10000	    0.90000;
	235	 2	 46.92	 26.90	 0.0	 0.0	 1	    1.00000	    0.00000	 150.0	 1	    1.10000	    0.90000;
	236	 1	 234.65	 40.50	 0.0	 0.0	 1	    1.01055	    0.00000	 220.0	 1	    1.12110	    0.90000;
	237	 1	 0.0	 0.0	 0.0	 0.0	 1	    1.02308	    0.00000	 380.0	 1	    1.14616	    0.90000;
	238	 2	 174.04	 10.60	 0.0	 0.0	 1	    1.01017	    0.00000	 220.0	 1	    1.12034	    0.90000;
	239	 1	 41.93	 9.00	 0.0	 0.0	 1	    1.00000	    0.00000	 220.0	 1	    1.10000	    0.90000;
	240	 1	 379.25	 29.30	 0.0	 0.0	 1	    1.02510	    0.00000	 220.0	 1	    1.15020	    0.90000;
	241	 1	 0.0	 0.0	 0.0	 -261.753	 1	    1.02753	    0.00000	 380.0	 1	    1.15507	    0.90000;
	242	 1	 112.35	 2.70	 0.0	 0.0	 1	    1.00000	    0.00000	 220.0	 1	    1.10000	    0.90000;
	243	 2	 0.0	 0.0	 0.0	 0.0	 1	    1.03173	    0.00000	 220.0	 1	    1.16345	    0.90000;
	244	 1	 0.0	 0.0	 0.0	 0.0	 1	    1.00000	    0.00000	 110.0	 1	    1.10000	    0.90000;
	245	 1	 0.0	 0.0	 0.0	 0.0	 1	    1.00000	    0.00000	 380.0	 1	    1.10000	    0.90000;
	246	 1	 104.66	 26.80	 0.0	 0.0	 1	    1.02364	    0.00000	 150.0	 1	    1.14727	    0.90000;
	247	 1	 0.0	 0.0	 0.0	 0.0	 1	    1.02198	    0.00000	 150.0	 1	    1.14395	    0.90000;
	248	 1	 0.0	 0.0	 0.0	 0.0	 1	    1.00000	    0.00000	 220.0	 1	    1.10000	    0.90000;
	249	 1	 20.59	 6.00	 0.0	 0.0	 1	    1.00000	    0.00000	 110.0	 1	    1.10000	    0.90000;
	250	 1	 110.51	 25.30	 0.0	 0.0	 1	    1.00568	    0.00000	 150.0	 1	    1.11136	    0.90000;
	251	 1	 0.0	 0.0	 0.0	 0.0	 1	    1.00000	    0.00000	 220.0	 1	    1.10000	    0.90000;
	252	 1	 0.0	 0.0	 0.0	 0.0	 1	    1.00000	    0.00000	 150.0	 1	    1.10000	    0.90000;
	253	 2	 122.63	 30.20	 0.0	 0.0	 1	    1.00000	    0.00000	 110.0	 1	    1.10000	    0.90000;
	254	 1	 8.99	 3.00	 0.0	 0.0	 1	    1.00629	    0.00000	 110.0	 1	    1.11258	    0.90000;
	255	 1	 129.45	 29.60	 0.0	 0.0	 1	    1.02818	    0.00000	 220.0	 1	    1.15635	    0.90000;
	256	 1	 0.0	 0.0	 0.0	 0.0	 1	    1.00854	    0.00000	 380.0	 1	    1.11709	    0.90000;
	257	 2	 54.01	 144.00	 0.0	 0.0	 1	    1.02506	    0.00000	 380.0	 1	    1.15011	    0.90000;
	258	 1	 29.58	 11.90	 0.0	 0.0	 1	    1.00834	    0.00000	 220.0	 1	    1.11668	    0.90000;
	259	 1	 191.20	 -3.40	 0.0	 0.0	 1	    1.00692	    0.00000	 220.0	 1	    1.11384	    0.90000;
	260	 1	 0.0	 0.0	 0.03458	 0.0	 1	    1.00000	    0.00000	 380.0	 1	    1.10000	    0.90000;
	261	 1	 191.68	 66.90	 0.0	 0.0	 1	    1.02394	    0.00000	 380.0	 1	    1.14787	    0.90000;
	262	 1	 0.0	 0.0	 0.0	 0.0	 1	    1.01106	    0.00000	 150.0	 1	    1.12212	    0.90000;
	263	 2	 0.0	 0.0	 0.0	 0.0	 1	    1.02069	    0.00000	 220.0	 1	    1.14137	    0.90000;
	264	 1	 57.86	 18.70	 0.0	 0.0	 1	    1.00000	    0.00000	 220.0	 1	    1.10000	    0.90000;
	265	 1	 0.0	 0.0	 0.0	 0.0	 1	    1.00000	    0.00000	 220.0	 1	    1.10000	    0.90000;
	266	 1	 14.95	 1.40	 0.0	 0.0	 1	    1.01764	    0.00000	 220.0	 1	    1.13528	    0.90000;
	267	 1	 92.11	 67.00	 0.0	 0.0	 1	    1.01018	    0.00000	 150.0	 1	    1.12035	    0.90000;
	268	 1	 0.0	 0.0	 0.0	 0.0	 1	    1.00899	    0.00000	 220.0	 1	    1.11797	    0.90000;
	269	 1	 204.89	 76.70	 0.0	 0.0	 1	    1.00000	    0.00000	 220.0	 1	    1.10000	    0.90000;
	270	 1	 25.68	 9.40	 0.0	 0.0	 1	    1.02215	    0.00000	 150.0	 1	    1.14430	    0.90000;
	271	 1	 10.01	 -21.00	 0.0	 0.0	 1	    1.01709	    0.00000	 220.0	 1	    1.13418	    0.90000;
	272	 2	 246.88	 131.80	 0.0	 0.0	 1	    1.01005	    0.00000	 380.0	 1	    1.12010	    0.90000;
	273	 1	 0.0	 0.0	 0.0	 0.0	 1	    1.00000	    0.00000	 150.0	 1	    1.10000	    0.90000;
	274	 2	 0.0	 0.0	 0.0	 0.0	 1	    1.00000	    0.00000	 110.0	 1	    1.10000	    0.90000;
	275	 1	 467.24	 121.60	 0.0	 0.0	 1	    1.00000	    0.00000	 220.0	 1	    1.10000	    0.90000;
	276	 1	 2.38	 0.50	 0.0	 0.0	 1	    1.00000	    0.00000	 150.0	 1	    1.10000	    0.90000;
	277	 1	 111.48	 12.00	 0.0	 0.0	 1	    1.04213	    0.00000	 220.0	 1	    1.18425	    0.90000;
	278	 1	 0.0	 0.0	 0.0	 0.0	 1	    1.03295	    0.00000	 220.0	 1	    1.16589	    0.90000;
	279	 1	 0.0	 0.0	 0.0	 0.0	 1	    1.02778	    0.00000	 380.0	 1	    1.15556	    0.90000;
	280	 1	 0.0	 0.0	 0.0	 40.46213	 1	    0.96551	    0.00000	 150.0	 1	    1.10000	    0.83101;
	281	 2	 0.0	 0.0	 0.0	 0.0	 1	    1.00000	    0.00000	 220.0	 1	    1.10000	    0.90000;
	282	 2	 -463.61	 253.81	 0.0	 0.0	 1	    1.03765	    0.00000	 380.0	 1	    1.17531	    0.90000;
	283	 1	 45.51	 17.20	 0.0	 0.0	 1	    1.01788	    0.00000	 150.0	 1	    1.13575	    0.90000;
	284	 2	 0.0	 0.0	 0.0	 0.0	 1	    1.02219	    0.00000	 110.0	 1	    1.14437	    0.90000;
	285	 1	 176.53	 46.30	 0.0	 0.0	 1	    1.01183	    0.00000	 220.0	 1	    1.12366	    0.90000;
	286	 1	 0.0	 0.0	 0.0	 0.0	 1	    1.00270	    0.00000	 220.0	 1	    1.10541	    0.90000;
	287	 1	 0.0	 0.0	 0.0	 0.0	 1	    1.01780	    0.00000	 220.0	 1	    1.13559	    0.90000;
	288	 1	 0.0	 0.0	 0.041702	 0.0	 1	    1.01745	    0.00000	 380.0	 1	    1.13490	    0.90000;
	289	 1	 0.0	 0.0	 0.0	 0.0	 1	    1.00000	    0.00000	 150.0	 1	    1.10000	    0.90000;
	290	 1	 67.17	 -23.90	 0.0	 0.0	 1	    1.00000	    0.00000	 220.0	 1	    1.10000	    0.90000;
	291	 1	 328.81	 85.40	 0.0	 0.0	 1	    1.00000	    0.00000	 220.0	 1	    1.10000	    0.90000;
	292	 2	 0.0	 0.0	 0.0	 0.0	 1	    1.00709	    0.00000	 380.0	 1	    1.11417	    0.90000;
	293	 1	 0.0	 0.0	 0.0	 0.0	 1	    1.03177	    0.00000	 220.0	 1	    1.16355	    0.90000;
	294	 1	 0.0	 0.0	 0.0	 0.0	 1	    1.01207	    0.00000	 380.0	 1	    1.12414	    0.90000;
	295	 2	 315.50	 51.30	 0.0	 0.0	 1	    1.00000	    0.00000	 220.0	 1	    1.10000	    0.90000;
	296	 1	 26.22	 7.10	 0.0	 0.0	 1	    1.00000	    0.00000	 110.0	 1	    1.10000	    0.90000;
	297	 1	 117.54	 2.60	 0.0	 0.0	 1	    1.00417	    0.00000	 380.0	 1	    1.10834	    0.90000;
	298	 1	 4.33	 2.40	 0.0	 0.0	 1	    1.00000	    0.00000	 150.0	 1	    1.10000	    0.90000;
	299	 1	 32.51	 10.90	 0.0	 0.0	 1	    1.00000	    0.00000	 110.0	 1	    1.10000	    0.90000;
	300	 1	 567.68	 43.00	 0.0	 0.0	 1	    1.01275	    0.00000	 220.0	 1	    1.12550	    0.90000;
	301	 1	 0.0	 0.0	 0.0	 0.0	 1	    1.00000	    0.00000	 110.0	 1	    1.10000	    0.90000;
	302	 1	 4.40	 0.00	 0.0	 0.0	 1	    1.00000	    0.00000	 110.0	 1	    1.10000	    0.90000;
	303	 2	 8.02	 2.70	 0.0	 0.0	 1	    1.01644	    0.00000	 110.0	 1	    1.13289	    0.90000;
	304	 2	 0.0	 0.0	 0.0	 0.0	 1	    1.01816	    0.00000	 220.0	 1	    1.13633	    0.90000;
	305	 1	 0.0	 0.0	 0.0	 0.0	 1	    1.02726	    0.00000	 220.0	 1	    1.15453	    0.90000;
	306	 1	 201.96	 56.60	 0.0	 0.0	 1	    1.02581	    0.00000	 380.0	 1	    1.15162	    0.90000;
	307	 1	 0.0	 0.0	 0.0	 0.0	 1	    1.00000	    0.00000	 110.0	 1	    1.10000	    0.90000;
	308	 2	 52.23	 23.50	 0.0	 0.0	 1	    1.01782	    0.00000	 220.0	 1	    1.13565	    0.90000;
	309	 1	 3.47	 1.20	 0.0	 0.0	 1	    1.01179	    0.00000	 110.0	 1	    1.12359	    0.90000;
	310	 1	 403.49	 147.50	 0.0	 0.0	 1	    1.02098	    0.00000	 150.0	 1	    1.14195	    0.90000;
	311	 1	 0.0	 0.0	 0.087531	 0.0	 1	    1.01269	    0.00000	 220.0	 1	    1.12538	    0.90000;
	312	 1	 213.76	 48.30	 0.0	 0.0	 1	    1.01785	    0.00000	 220.0	 1	    1.13570	    0.90000;
	313	 2	 0.0	 0.0	 0.0	 0.0	 1	    1.02752	    0.00000	 380.0	 1	    1.15504	    0.90000;
	314	 1	 0.0	 0.0	 0.0	 0.0	 1	    1.02472	    0.00000	 150.0	 1	    1.14945	    0.90000;
	315	 1	 119.49	 26.20	 0.0	 0.0	 1	    1.03073	    0.00000	 220.0	 1	    1.16146	    0.90000;
	316	 2	 0.0	 0.0	 0.0	 0.0	 1	    1.00337	    0.00000	 220.0	 1	    1.10675	    0.90000;