%%%%%%%%%%%%%%%%%%%%%%%%%%%%%%%%%%%%%%%%%%%%%%%%%%%%%%%%%%%%%%%%%%%%%%%%%%%
%%%%                                                                  %%%%%
%%%%    IEEE PES Power Grid Library - Optimal Power Flow - v17.07     %%%%%
%%%%          (https://github.com/power-grid-lib/pglib-opf)           %%%%%
%%%%             Benchmark Group - Active Power Increase              %%%%%
%%%%                         27 - June - 2017                         %%%%%
%%%%                                                                  %%%%%
%%%%%%%%%%%%%%%%%%%%%%%%%%%%%%%%%%%%%%%%%%%%%%%%%%%%%%%%%%%%%%%%%%%%%%%%%%%
function mpc = pglib_opf_case2746wop_mp__api
mpc.version = '2';
mpc.baseMVA = 100.0;

%% area data
%	area	refbus
mpc.areas = [
	1	 18;
];

%% bus data
%	bus_i	type	Pd	Qd	Gs	Bs	area	Vm	Va	baseKV	zone	Vmax	Vmin
mpc.bus = [
	1	 1	 0.00	 0.00	 0.0	 0.0	 1	    1.10016	   -1.93711	 220.0	 1	    1.11000	    0.95000;
	2	 1	 0.00	 0.00	 0.0	 0.0	 1	    1.10442	    1.87884	 220.0	 1	    1.11000	    0.95000;
	3	 1	 0.00	 0.00	 0.0	 0.0	 1	    1.08521	   -8.40780	 220.0	 1	    1.11000	    0.95000;
	4	 1	 0.00	 0.00	 0.0	 0.0	 1	    1.10198	   -4.05720	 220.0	 1	    1.11000	    0.95000;
	5	 1	 0.00	 0.00	 0.0	 0.0	 1	    1.10199	   -4.06365	 220.0	 1	    1.11000	    0.95000;
	6	 1	 0.00	 0.00	 0.0	 0.0	 1	    1.09100	   -8.83977	 220.0	 1	    1.11000	    0.95000;
	7	 1	 0.00	 0.00	 0.0	 0.0	 1	    1.09100	   -8.82893	 220.0	 1	    1.11000	    0.95000;
	8	 1	 0.00	 0.00	 0.0	 -50.0	 1	    1.04117	   -7.45999	 400.0	 1	    1.05000	    0.95000;
	9	 1	 0.00	 0.00	 0.0	 0.0	 1	    1.04116	   -7.46318	 400.0	 1	    1.05000	    0.95000;
	10	 1	 0.00	 0.00	 0.0	 0.0	 1	    1.08954	  -10.10924	 220.0	 1	    1.11000	    0.95000;
	11	 1	 0.00	 0.00	 0.0	 0.0	 1	    1.08948	  -10.11819	 220.0	 1	    1.11000	    0.95000;
	12	 1	 0.00	 0.00	 0.0	 0.0	 1	    1.08950	  -10.10909	 220.0	 1	    1.11000	    0.95000;
	13	 1	 0.00	 0.00	 0.0	 -50.0	 1	    1.03616	   -6.47354	 400.0	 1	    1.05000	    0.95000;
	14	 1	 0.00	 0.00	 0.0	 0.0	 1	    1.03624	   -6.46817	 400.0	 1	    1.05000	    0.95000;
	15	 1	 0.00	 0.00	 0.0	 0.0	 1	    1.04722	   -7.35900	 400.0	 1	    1.05000	    0.95000;
	16	 1	 0.00	 0.00	 0.0	 0.0	 1	    1.04722	   -7.35900	 400.0	 1	    1.05000	    0.95000;
	17	 2	 2.43	 31.00	 0.0	 0.0	 1	    1.11000	   -3.35594	 220.0	 1	    1.11000	    0.95000;
	18	 2	 10.23	 40.00	 0.0	 0.0	 1	    1.11000	   -3.36155	 220.0	 1	    1.11000	    0.95000;
	19	 1	 0.00	 0.00	 0.0	 0.0	 1	    1.10331	   -3.31264	 220.0	 1	    1.11000	    0.95000;
	20	 1	 0.00	 0.00	 0.0	 0.0	 1	    1.10330	   -3.30313	 220.0	 1	    1.11000	    0.95000;
	21	 1	 0.00	 0.00	 0.0	 0.0	 1	    1.10287	  -11.72657	 220.0	 1	    1.11000	    0.95000;
	22	 1	 0.00	 0.00	 0.0	 0.0	 1	    1.10287	  -11.72657	 220.0	 1	    1.11000	    0.95000;
	23	 1	 0.00	 0.00	 0.0	 0.0	 1	    1.08972	  -10.00087	 220.0	 1	    1.11000	    0.95000;
	24	 1	 0.00	 0.00	 0.0	 0.0	 1	    1.10288	   -1.35819	 220.0	 1	    1.11000	    0.95000;
	25	 1	 0.00	 0.00	 0.0	 -50.0	 1	    1.04400	  -10.09821	 400.0	 1	    1.05000	    0.95000;
	26	 2	 30.12	 42.05	 0.0	 0.0	 1	    1.10911	   -1.78997	 220.0	 1	    1.11000	    0.95000;
	27	 2	 89.62	 122.06	 0.0	 0.0	 1	    1.11000	    2.13274	 220.0	 1	    1.11000	    0.95000;
	28	 3	 47.22	 80.00	 0.0	 0.0	 1	    1.04915	    0.00000	 400.0	 1	    1.05000	    0.95000;
	29	 2	 63.36	 90.00	 0.0	 0.0	 1	    1.04908	   -0.00926	 400.0	 1	    1.05000	    0.95000;
	30	 1	 0.00	 0.00	 0.0	 0.0	 1	    1.09492	  -10.91851	 220.0	 1	    1.11000	    0.95000;
	31	 1	 0.00	 0.00	 0.0	 0.0	 1	    1.04812	   -1.31489	 400.0	 1	    1.05000	    0.95000;
	32	 1	 0.00	 0.00	 0.0	 0.0	 1	    1.08792	  -10.32693	 220.0	 1	    1.11000	    0.95000;
	33	 1	 0.00	 0.00	 0.0	 0.0	 1	    1.10288	   -1.35737	 220.0	 1	    1.11000	    0.95000;
	34	 1	 0.00	 0.00	 0.0	 0.0	 1	    1.10379	   -6.09708	 220.0	 1	    1.11000	    0.95000;
	35	 1	 0.00	 0.00	 0.0	 0.0	 1	    1.10150	   -4.35151	 220.0	 2	    1.11000	    0.95000;
	36	 1	 0.00	 0.00	 0.0	 0.0	 1	    1.08567	   -6.42616	 220.0	 2	    1.11000	    0.95000;
	37	 1	 0.00	 0.00	 0.0	 0.0	 1	    1.08779	   -5.49594	 220.0	 2	    1.11000	    0.95000;
	38	 1	 0.00	 0.00	 0.0	 0.0	 1	    1.08778	   -5.49990	 220.0	 2	    1.11000	    0.95000;
	39	 1	 0.00	 0.00	 0.0	 0.0	 1	    1.09444	   -1.70441	 220.0	 2	    1.11000	    0.95000;
	40	 1	 0.00	 0.00	 0.0	 0.0	 1	    1.11000	   -5.90232	 220.0	 2	    1.11000	    0.95000;
	41	 1	 0.00	 0.00	 0.0	 0.0	 1	    1.10990	   -5.90326	 220.0	 2	    1.11000	    0.95000;
	42	 1	 0.00	 0.00	 0.0	 0.0	 1	    1.02339	   -5.76363	 400.0	 2	    1.05000	    0.95000;
	43	 2	 12.00	 0.00	 0.0	 0.0	 1	    1.11000	   -6.13470	 220.0	 2	    1.11000	    0.95000;
	44	 2	 24.00	 0.00	 0.0	 0.0	 1	    1.10988	   -6.12802	 220.0	 2	    1.11000	    0.95000;
	45	 2	 20.00	 0.00	 0.0	 0.0	 1	    1.03762	   -6.11155	 400.0	 2	    1.05000	    0.95000;
	46	 1	 0.00	 0.00	 0.0	 0.0	 1	    1.03762	   -6.11086	 400.0	 2	    1.05000	    0.95000;
	47	 1	 0.00	 0.00	 0.0	 0.0	 1	    1.10852	   -6.33393	 220.0	 2	    1.11000	    0.95000;
	48	 1	 0.00	 0.00	 0.0	 0.0	 1	    1.04697	   -9.26380	 400.0	 2	    1.05000	    0.95000;
	49	 1	 0.00	 0.00	 0.0	 0.0	 1	    1.04698	   -9.26926	 400.0	 2	    1.05000	    0.95000;
	50	 1	 0.00	 0.00	 0.0	 0.0	 1	    1.03532	   -5.87024	 400.0	 2	    1.05000	    0.95000;
	51	 1	 0.00	 0.00	 0.0	 0.0	 1	    1.09226	    0.23880	 220.0	 2	    1.11000	    0.95000;
	52	 1	 0.00	 0.00	 0.0	 0.0	 1	    1.09221	    0.25821	 220.0	 2	    1.11000	    0.95000;
	53	 1	 0.00	 0.00	 0.0	 0.0	 1	    1.03465	   -6.21133	 400.0	 2	    1.05000	    0.95000;
	54	 1	 0.00	 0.00	 0.0	 0.0	 1	    1.03466	   -6.21009	 400.0	 2	    1.05000	    0.95000;
	55	 2	 12.00	 0.00	 0.0	 0.0	 1	    1.08422	   -4.99733	 220.0	 2	    1.11000	    0.95000;
	56	 2	 12.00	 0.00	 0.0	 0.0	 1	    1.08416	   -5.00234	 220.0	 2	    1.11000	    0.95000;
	57	 2	 12.00	 0.00	 0.0	 0.0	 1	    1.03336	   -5.61569	 400.0	 2	    1.05000	    0.95000;
	58	 2	 12.00	 0.00	 0.0	 0.0	 1	    1.03336	   -5.62158	 400.0	 2	    1.05000	    0.95000;
	59	 2	 180.01	 62.00	 0.0	 0.0	 1	    1.10414	   -6.60731	 220.0	 2	    1.11000	    0.95000;
	60	 1	 0.00	 0.00	 0.0	 0.0	 1	    1.10416	   -6.59559	 220.0	 2	    1.11000	    0.95000;
	61	 1	 0.00	 0.00	 0.0	 0.0	 1	    1.10226	   -6.34970	 220.0	 2	    1.11000	    0.95000;
	62	 1	 0.00	 0.00	 0.0	 0.0	 1	    1.10564	   -6.57494	 220.0	 2	    1.11000	    0.95000;
	63	 1	 0.00	 0.00	 0.0	 0.0	 1	    1.10563	   -6.57616	 220.0	 2	    1.11000	    0.95000;
	64	 1	 0.00	 0.00	 0.0	 0.0	 1	    1.04365	   -6.88875	 400.0	 2	    1.05000	    0.95000;
	65	 1	 0.00	 0.00	 0.0	 0.0	 1	    1.04368	   -6.89940	 400.0	 2	    1.05000	    0.95000;
	66	 1	 0.00	 0.00	 0.0	 0.0	 1	    1.09132	   -5.56051	 220.0	 2	    1.11000	    0.95000;
	67	 1	 0.00	 0.00	 0.0	 0.0	 1	    1.09217	   -5.43492	 220.0	 2	    1.11000	    0.95000;
	68	 1	 0.00	 0.00	 0.0	 0.0	 1	    1.08822	    3.03853	 220.0	 2	    1.11000	    0.95000;
	69	 1	 0.00	 0.00	 0.0	 0.0	 1	    1.09957	   -3.24083	 220.0	 3	    1.11000	    0.95000;
	70	 1	 6.80	 0.00	 0.0	 0.0	 1	    1.10183	   -5.59499	 220.0	 3	    1.11000	    0.95000;
	71	 1	 11.95	 2.43	 0.0	 0.0	 1	    1.10165	   -5.60565	 220.0	 3	    1.11000	    0.95000;
	72	 1	 0.00	 0.00	 0.0	 0.0	 1	    1.10356	   -4.60386	 220.0	 3	    1.11000	    0.95000;
	73	 1	 0.00	 0.00	 0.0	 0.0	 1	    1.10356	   -4.58891	 220.0	 3	    1.11000	    0.95000;
	74	 1	 0.00	 0.00	 0.0	 0.0	 1	    1.10566	   -3.65379	 220.0	 3	    1.11000	    0.95000;
	75	 1	 0.00	 0.00	 0.0	 0.0	 1	    1.10565	   -3.65304	 220.0	 3	    1.11000	    0.95000;
	76	 1	 0.00	 0.00	 0.0	 0.0	 1	    1.10845	   -8.17747	 220.0	 3	    1.11000	    0.95000;
	77	 1	 0.00	 0.00	 0.0	 0.0	 1	    1.10846	   -8.18990	 220.0	 3	    1.11000	    0.95000;
	78	 2	 28.47	 70.00	 0.0	 0.0	 1	    1.10448	   -3.56971	 220.0	 3	    1.11000	    0.95000;
	79	 2	 9.49	 21.00	 0.0	 0.0	 1	    1.10467	   -2.69563	 220.0	 3	    1.11000	    0.95000;
	80	 1	 10.63	 1.38	 0.0	 0.0	 1	    1.10164	   -4.76598	 220.0	 3	    1.11000	    0.95000;
	81	 1	 0.00	 0.00	 0.0	 0.0	 1	    1.10165	   -4.76403	 220.0	 3	    1.11000	    0.95000;
	82	 2	 36.90	 108.00	 0.0	 0.0	 1	    1.03575	   -4.10930	 400.0	 3	    1.05000	    0.95000;
	83	 1	 0.00	 0.00	 0.0	 0.0	 1	    1.11000	   -5.47809	 220.0	 3	    1.11000	    0.95000;
	84	 1	 0.00	 0.00	 0.0	 0.0	 1	    1.10665	   -2.35180	 220.0	 3	    1.11000	    0.95000;
	85	 1	 0.00	 0.00	 0.0	 0.0	 1	    1.10662	   -2.34675	 220.0	 3	    1.11000	    0.95000;
	86	 1	 46.55	 10.56	 0.0	 0.0	 1	    1.09946	   -3.09455	 220.0	 3	    1.11000	    0.95000;
	87	 1	 0.00	 0.00	 0.0	 0.0	 1	    1.09944	   -3.09707	 220.0	 3	    1.11000	    0.95000;
	88	 1	 0.00	 0.00	 0.0	 0.0	 1	    1.10163	   -2.45580	 220.0	 3	    1.11000	    0.95000;
	89	 1	 0.00	 0.00	 0.0	 0.0	 1	    1.10166	   -2.46421	 220.0	 3	    1.11000	    0.95000;
	90	 1	 0.00	 0.00	 0.0	 0.0	 1	    1.10190	   -2.76953	 220.0	 3	    1.11000	    0.95000;
	91	 1	 0.00	 0.00	 0.0	 0.0	 1	    1.10190	   -2.76566	 220.0	 3	    1.11000	    0.95000;
	92	 1	 0.00	 0.00	 0.0	 0.0	 1	    1.05000	   -1.54878	 400.0	 3	    1.05000	    0.95000;
	93	 1	 0.00	 0.00	 0.0	 0.0	 1	    1.04999	   -1.54967	 400.0	 3	    1.05000	    0.95000;
	94	 1	 0.00	 0.00	 0.0	 0.0	 1	    1.10997	   -1.59006	 220.0	 3	    1.11000	    0.95000;
	95	 1	 0.00	 0.00	 0.0	 0.0	 1	    1.11000	   -1.58964	 220.0	 3	    1.11000	    0.95000;
	96	 1	 0.00	 0.00	 0.0	 0.0	 1	    1.10717	   -4.74128	 220.0	 3	    1.11000	    0.95000;
	97	 1	 0.00	 0.00	 0.0	 0.0	 1	    1.10719	   -4.74494	 220.0	 3	    1.11000	    0.95000;
	98	 1	 18.04	 6.32	 0.0	 0.0	 1	    1.10125	   -3.49944	 220.0	 3	    1.11000	    0.95000;
	99	 1	 0.00	 0.00	 0.0	 0.0	 1	    1.10124	   -3.50457	 220.0	 3	    1.11000	    0.95000;
	100	 1	 0.00	 0.00	 0.0	 0.0	 1	    1.10183	   -5.57888	 220.0	 3	    1.11000	    0.95000;
	101	 1	 0.00	 0.00	 0.0	 0.0	 1	    1.10186	   -5.57918	 220.0	 3	    1.11000	    0.95000;
	102	 1	 0.00	 0.00	 0.0	 0.0	 1	    1.11000	   -7.46044	 220.0	 3	    1.11000	    0.95000;
	103	 1	 0.00	 0.00	 0.0	 0.0	 1	    1.10995	   -7.45261	 220.0	 3	    1.11000	    0.95000;
	104	 2	 14.76	 40.00	 0.0	 0.0	 1	    1.10997	   -2.24981	 220.0	 3	    1.11000	    0.95000;
	105	 2	 0.00	 0.00	 0.0	 0.0	 1	    1.11000	   -2.26256	 220.0	 3	    1.11000	    0.95000;
	106	 2	 7.38	 18.00	 0.0	 0.0	 1	    1.10609	   -1.59684	 220.0	 3	    1.11000	    0.95000;
	107	 2	 8.43	 15.00	 0.0	 0.0	 1	    1.10601	   -1.60323	 220.0	 3	    1.11000	    0.95000;
	108	 1	 55.59	 17.14	 0.0	 0.0	 1	    1.09903	   -4.07671	 220.0	 3	    1.11000	    0.95000;
	109	 1	 59.51	 10.90	 0.0	 0.0	 1	    1.09906	   -4.08190	 220.0	 3	    1.11000	    0.95000;
	110	 1	 0.00	 0.00	 0.0	 0.0	 1	    1.10536	   -4.31885	 220.0	 3	    1.11000	    0.95000;
	111	 1	 0.00	 0.00	 0.0	 0.0	 1	    1.09869	   -4.93211	 220.0	 3	    1.11000	    0.95000;
	112	 1	 0.00	 0.00	 0.0	 0.0	 1	    1.09871	   -4.93127	 220.0	 3	    1.11000	    0.95000;
	113	 1	 0.00	 0.00	 0.0	 0.0	 1	    1.10231	   -4.62686	 220.0	 3	    1.11000	    0.95000;
	114	 1	 0.00	 0.00	 0.0	 0.0	 1	    1.10232	   -4.61908	 220.0	 3	    1.11000	    0.95000;
	115	 1	 0.00	 0.00	 0.0	 0.0	 1	    1.03742	   -3.49446	 400.0	 3	    1.05000	    0.95000;
	116	 2	 0.00	 0.00	 0.0	 0.0	 1	    1.10423	   -3.19465	 220.0	 3	    1.11000	    0.95000;
	117	 2	 8.43	 15.00	 0.0	 0.0	 1	    1.10422	   -3.19480	 220.0	 3	    1.11000	    0.95000;
	118	 2	 5.80	 10.00	 0.0	 0.0	 1	    1.10495	   -3.88137	 220.0	 3	    1.11000	    0.95000;
	119	 1	 0.00	 0.00	 0.0	 0.0	 1	    1.10504	   -3.88699	 220.0	 3	    1.11000	    0.95000;
	120	 1	 0.00	 0.00	 0.0	 0.0	 1	    1.04430	   -5.89791	 400.0	 3	    1.05000	    0.95000;
	121	 1	 0.00	 0.00	 0.0	 0.0	 1	    1.04432	   -5.89282	 400.0	 3	    1.05000	    0.95000;
	122	 1	 0.00	 0.00	 0.0	 0.0	 1	    1.04303	   -3.37100	 400.0	 3	    1.05000	    0.95000;
	123	 1	 0.00	 0.00	 0.0	 0.0	 1	    1.04307	   -3.36944	 400.0	 3	    1.05000	    0.95000;
	124	 1	 0.00	 0.00	 0.0	 0.0	 1	    1.10471	   -4.34062	 220.0	 3	    1.11000	    0.95000;
	125	 2	 20.26	 21.47	 0.0	 0.0	 1	    1.10562	   -3.78344	 220.0	 3	    1.11000	    0.95000;
	126	 2	 32.34	 33.60	 0.0	 0.0	 1	    1.10558	   -3.79527	 220.0	 3	    1.11000	    0.95000;
	127	 2	 29.52	 66.00	 0.0	 0.0	 1	    1.03402	   -3.13338	 400.0	 3	    1.05000	    0.95000;
	128	 1	 0.00	 0.00	 0.0	 0.0	 1	    1.03405	   -3.13702	 400.0	 3	    1.05000	    0.95000;
	129	 1	 0.00	 0.00	 0.0	 0.0	 1	    1.09900	   -3.14651	 220.0	 3	    1.11000	    0.95000;
	130	 1	 0.00	 0.00	 0.0	 0.0	 1	    1.09900	   -3.14058	 220.0	 3	    1.11000	    0.95000;
	131	 1	 0.00	 0.00	 0.0	 0.0	 1	    1.10080	   -2.87762	 220.0	 3	    1.11000	    0.95000;
	132	 2	 272.00	 -62.00	 0.0	 0.0	 1	    1.10978	   -8.99273	 220.0	 3	    1.11000	    0.95000;
	133	 2	 266.50	 -24.80	 0.0	 0.0	 1	    1.10775	   -8.97840	 220.0	 3	    1.11000	    0.95000;
	134	 2	 15.74	 12.88	 0.0	 0.0	 1	    1.10898	   -6.66985	 220.0	 4	    1.11000	    0.95000;
	135	 2	 8.45	 6.53	 0.0	 0.0	 1	    1.10893	   -6.67782	 220.0	 4	    1.11000	    0.95000;
	136	 1	 0.00	 0.00	 0.0	 0.0	 1	    1.09819	   -6.60507	 220.0	 4	    1.11000	    0.95000;
	137	 1	 0.00	 0.00	 0.0	 0.0	 1	    1.10333	   -5.10725	 220.0	 4	    1.11000	    0.95000;
	138	 1	 0.00	 0.00	 0.0	 0.0	 1	    1.04998	   -5.82857	 400.0	 4	    1.05000	    0.95000;
	139	 1	 0.00	 0.00	 0.0	 0.0	 1	    1.05000	   -5.83025	 400.0	 4	    1.05000	    0.95000;
	140	 1	 0.00	 0.00	 0.0	 0.0	 1	    1.10626	  -11.63465	 220.0	 4	    1.11000	    0.95000;
	141	 1	 0.00	 0.00	 0.0	 0.0	 1	    1.09015	  -12.88904	 220.0	 4	    1.11000	    0.95000;
	142	 1	 0.00	 0.00	 0.0	 0.0	 1	    1.09015	  -12.88904	 220.0	 4	    1.11000	    0.95000;
	143	 1	 0.00	 0.00	 0.0	 0.0	 1	    1.08909	  -11.83931	 220.0	 4	    1.11000	    0.95000;
	144	 1	 0.00	 0.00	 0.0	 0.0	 1	    1.10062	   -6.28918	 220.0	 4	    1.11000	    0.95000;
	145	 1	 0.00	 0.00	 0.0	 0.0	 1	    1.10062	   -6.28918	 220.0	 4	    1.11000	    0.95000;
	146	 2	 58.26	 6.96	 0.0	 0.0	 1	    1.10785	   -8.50253	 220.0	 4	    1.11000	    0.95000;
	147	 2	 10.62	 8.40	 0.0	 0.0	 1	    1.10787	   -8.50081	 220.0	 4	    1.11000	    0.95000;
	148	 2	 12.12	 6.86	 0.0	 0.0	 1	    1.08654	  -12.19473	 220.0	 4	    1.11000	    0.95000;
	149	 1	 4.66	 1.35	 0.0	 0.0	 1	    1.08632	  -12.20785	 220.0	 4	    1.11000	    0.95000;
	150	 2	 13.32	 6.83	 0.0	 0.0	 1	    0.99231	  -14.63189	 400.0	 4	    1.05000	    0.95000;
	151	 2	 13.07	 10.04	 0.0	 0.0	 1	    0.99228	  -14.63820	 400.0	 4	    1.05000	    0.95000;
	152	 1	 0.00	 0.00	 0.0	 0.0	 1	    1.09509	  -11.91373	 220.0	 4	    1.11000	    0.95000;
	153	 1	 0.00	 0.00	 0.0	 0.0	 1	    1.09572	  -10.47464	 220.0	 4	    1.11000	    0.95000;
	154	 1	 0.00	 0.00	 0.0	 0.0	 1	    1.09575	  -10.46931	 220.0	 4	    1.11000	    0.95000;
	155	 2	 35.42	 44.98	 0.0	 0.0	 1	    1.11000	   -1.78583	 220.0	 4	    1.11000	    0.95000;
	156	 2	 35.67	 45.07	 0.0	 0.0	 1	    1.11000	   -4.96963	 220.0	 4	    1.11000	    0.95000;
	157	 1	 0.00	 0.00	 0.0	 0.0	 1	    1.11000	   -1.78583	 220.0	 4	    1.11000	    0.95000;
	158	 1	 0.00	 0.00	 0.0	 0.0	 1	    1.03736	   -3.71199	 400.0	 4	    1.05000	    0.95000;
	159	 2	 9.16	 17.49	 0.0	 0.0	 1	    1.03727	   -3.71269	 400.0	 4	    1.05000	    0.95000;
	160	 1	 0.00	 0.00	 0.0	 0.0	 1	    1.08860	  -12.67344	 220.0	 4	    1.11000	    0.95000;
	161	 1	 0.00	 0.00	 0.0	 0.0	 1	    1.08860	  -12.67344	 220.0	 4	    1.11000	    0.95000;
	162	 1	 0.00	 0.00	 0.0	 0.0	 1	    1.05000	   -6.52722	 400.0	 4	    1.05000	    0.95000;
	163	 1	 0.00	 0.00	 0.0	 0.0	 1	    1.04968	   -5.84534	 400.0	 4	    1.05000	    0.95000;
	164	 1	 0.00	 0.00	 0.0	 0.0	 1	    1.04969	   -5.84536	 400.0	 4	    1.05000	    0.95000;
	165	 2	 5.79	 9.59	 0.0	 0.0	 1	    1.10840	   -8.55628	 220.0	 4	    1.11000	    0.95000;
	166	 2	 10.65	 4.89	 0.0	 0.0	 1	    1.10842	   -8.54094	 220.0	 4	    1.11000	    0.95000;
	167	 1	 15.14	 13.62	 0.0	 0.0	 1	    1.10837	   -8.55761	 220.0	 4	    1.11000	    0.95000;
	168	 1	 0.00	 0.00	 0.0	 0.0	 1	    1.10384	  -16.52560	 220.0	 4	    1.11000	    0.95000;
	169	 1	 0.00	 0.00	 0.0	 0.0	 1	    1.09334	  -12.95772	 220.0	 4	    1.11000	    0.95000;
	170	 1	 0.00	 0.00	 0.0	 0.0	 1	    1.11000	  -12.43387	 220.0	 4	    1.11000	    0.95000;
	171	 1	 0.00	 0.00	 0.0	 0.0	 1	    1.10993	  -12.43401	 220.0	 4	    1.11000	    0.95000;
	172	 1	 0.00	 0.00	 0.0	 0.0	 1	    0.95503	  -13.24313	 400.0	 4	    1.05000	    0.95000;
	173	 1	 0.00	 0.00	 0.0	 0.0	 1	    0.95503	  -13.24313	 400.0	 4	    1.05000	    0.95000;
	174	 1	 0.00	 0.00	 0.0	 0.0	 1	    1.08575	  -10.16641	 220.0	 4	    1.11000	    0.95000;
	175	 1	 0.00	 0.00	 0.0	 0.0	 1	    1.08574	  -10.15964	 220.0	 4	    1.11000	    0.95000;
	176	 1	 0.00	 0.00	 0.0	 0.0	 1	    1.10745	  -12.54512	 220.0	 4	    1.11000	    0.95000;
	177	 1	 0.00	 0.00	 0.0	 0.0	 1	    1.10146	   -6.36562	 220.0	 4	    1.11000	    0.95000;
	178	 1	 0.00	 0.00	 0.0	 0.0	 1	    1.10150	   -6.36863	 220.0	 4	    1.11000	    0.95000;
	179	 1	 0.00	 0.00	 0.0	 0.0	 1	    1.10494	   -6.64558	 220.0	 4	    1.11000	    0.95000;
	180	 1	 0.00	 0.00	 0.0	 0.0	 1	    1.10494	   -6.64558	 220.0	 4	    1.11000	    0.95000;
	181	 1	 0.00	 0.00	 0.0	 0.0	 1	    1.08374	  -10.97076	 220.0	 4	    1.11000	    0.95000;
	182	 1	 0.00	 0.00	 0.0	 0.0	 1	    1.08873	  -14.80588	 220.0	 5	    1.11000	    0.95000;
	183	 1	 0.00	 0.00	 0.0	 0.0	 1	    1.10804	  -19.76492	 220.0	 5	    1.11000	    0.95000;
	184	 1	 0.00	 0.00	 0.0	 0.0	 1	    1.02094	  -19.75967	 400.0	 5	    1.05000	    0.95000;
	185	 1	 0.00	 0.00	 0.0	 0.0	 1	    1.02091	  -19.75263	 400.0	 5	    1.05000	    0.95000;
	186	 1	 0.00	 0.00	 0.0	 0.0	 1	    1.04415	  -21.78451	 400.0	 5	    1.05000	    0.95000;
	187	 1	 0.00	 0.00	 0.0	 0.0	 1	    1.04417	  -21.78936	 400.0	 5	    1.05000	    0.95000;
	188	 1	 0.00	 0.00	 0.0	 0.0	 1	    1.10834	  -19.18892	 220.0	 5	    1.11000	    0.95000;
	189	 1	 0.00	 0.00	 0.0	 0.0	 1	    1.10835	  -19.19247	 220.0	 5	    1.11000	    0.95000;
	190	 1	 0.00	 0.00	 0.0	 0.0	 1	    1.09610	  -16.76607	 220.0	 5	    1.11000	    0.95000;
	191	 1	 0.00	 0.00	 0.0	 0.0	 1	    1.09613	  -16.76408	 220.0	 5	    1.11000	    0.95000;
	192	 1	 0.00	 0.00	 0.0	 0.0	 1	    1.03767	  -16.52973	 400.0	 5	    1.05000	    0.95000;
	193	 1	 0.00	 0.00	 0.0	 0.0	 1	    1.09397	  -14.44233	 220.0	 5	    1.11000	    0.95000;
	194	 1	 0.00	 0.00	 0.0	 0.0	 1	    1.09397	  -14.44134	 220.0	 5	    1.11000	    0.95000;
	195	 1	 0.00	 0.00	 0.0	 0.0	 1	    1.04776	  -20.76556	 400.0	 5	    1.05000	    0.95000;
	196	 1	 0.00	 0.00	 0.0	 0.0	 1	    1.04775	  -20.76285	 400.0	 5	    1.05000	    0.95000;
	197	 1	 0.00	 0.00	 0.0	 0.0	 1	    1.09987	  -13.90887	 220.0	 5	    1.11000	    0.95000;
	198	 1	 0.00	 0.00	 0.0	 0.0	 1	    1.09980	  -13.89786	 220.0	 5	    1.11000	    0.95000;
	199	 1	 0.00	 0.00	 0.0	 0.0	 1	    1.02617	  -21.46560	 400.0	 5	    1.05000	    0.95000;
	200	 1	 0.00	 0.00	 0.0	 0.0	 1	    1.02613	  -21.45515	 400.0	 5	    1.05000	    0.95000;
	201	 1	 0.00	 0.00	 0.0	 0.0	 1	    1.09207	  -16.25867	 220.0	 5	    1.11000	    0.95000;
	202	 1	 0.00	 0.00	 0.0	 0.0	 1	    1.09206	  -16.25282	 220.0	 5	    1.11000	    0.95000;
	203	 1	 0.00	 0.00	 0.0	 0.0	 1	    1.08866	  -14.05478	 220.0	 5	    1.11000	    0.95000;
	204	 1	 0.00	 0.00	 0.0	 0.0	 1	    1.08864	  -14.06735	 220.0	 5	    1.11000	    0.95000;
	205	 2	 619.91	 0.00	 0.0	 0.0	 1	    1.03678	  -24.02326	 400.0	 5	    1.05000	    0.95000;
	206	 2	 205.25	 0.00	 0.0	 0.0	 1	    1.03681	  -24.02118	 400.0	 5	    1.05000	    0.95000;
	207	 1	 0.00	 0.00	 0.0	 0.0	 1	    1.10569	  -19.75130	 220.0	 5	    1.11000	    0.95000;
	208	 1	 0.00	 0.00	 0.0	 0.0	 1	    1.10572	  -19.75419	 220.0	 5	    1.11000	    0.95000;
	209	 1	 6.14	 1.50	 0.0	 0.0	 1	    1.10113	   -8.85803	 110.0	 1	    1.12000	    0.95000;
	210	 1	 4.60	 0.50	 0.0	 0.0	 1	    1.09413	  -13.07138	 110.0	 1	    1.12000	    0.95000;
	211	 1	 8.18	 2.00	 0.0	 0.0	 1	    1.11291	  -11.41343	 110.0	 1	    1.12000	    0.95000;
	212	 1	 6.65	 5.60	 0.0	 0.0	 1	    1.06100	  -14.66696	 110.0	 1	    1.12000	    0.95000;
	213	 1	 2.66	 0.60	 0.0	 0.0	 1	    1.07329	   -0.75220	 110.0	 1	    1.12000	    0.95000;
	214	 1	 5.11	 1.30	 0.0	 0.0	 1	    1.08302	   -3.52484	 110.0	 1	    1.12000	    0.95000;
	215	 2	 20.24	 8.00	 0.0	 0.0	 1	    1.11874	   -5.88619	 110.0	 1	    1.12000	    0.95000;
	216	 1	 15.34	 1.50	 0.0	 0.0	 1	    1.11758	   -6.46518	 110.0	 1	    1.12000	    0.95000;
	217	 1	 5.11	 1.00	 0.0	 0.0	 1	    1.11772	   -6.33313	 110.0	 1	    1.12000	    0.95000;
	218	 1	 5.11	 1.00	 0.0	 0.0	 1	    1.11834	   -6.19793	 110.0	 1	    1.12000	    0.95000;
	219	 2	 8.70	 1.60	 0.0	 0.0	 1	    1.09919	  -14.10343	 110.0	 1	    1.12000	    0.95000;
	220	 1	 6.14	 1.50	 0.0	 0.0	 1	    1.11063	  -11.40687	 110.0	 1	    1.12000	    0.95000;
	221	 2	 0.00	 0.00	 0.0	 0.0	 1	    1.06316	   -9.68384	 110.0	 1	    1.12000	    0.95000;
	222	 2	 6.65	 1.50	 0.0	 0.0	 1	    1.09951	   -7.59892	 110.0	 1	    1.12000	    0.95000;
	223	 2	 16.37	 2.60	 0.0	 0.0	 1	    1.10506	  -13.63409	 110.0	 1	    1.12000	    0.95000;
	224	 1	 1.74	 0.40	 0.0	 0.0	 1	    1.06319	   -2.58103	 110.0	 1	    1.12000	    0.95000;
	225	 1	 2.56	 0.20	 0.0	 0.0	 1	    1.10597	  -15.02308	 110.0	 1	    1.12000	    0.95000;
	226	 1	 3.07	 0.50	 0.0	 0.0	 1	    1.11388	   -9.97024	 110.0	 1	    1.12000	    0.95000;
	227	 1	 11.25	 0.50	 0.0	 0.0	 1	    1.11039	   -8.04163	 110.0	 1	    1.12000	    0.95000;
	228	 1	 7.16	 2.00	 0.0	 0.0	 1	    1.10288	  -13.79745	 110.0	 1	    1.12000	    0.95000;
	229	 2	 2.35	 1.05	 0.0	 0.0	 1	    1.11396	   -6.98026	 110.0	 1	    1.12000	    0.95000;
	230	 2	 2.35	 1.05	 0.0	 0.0	 1	    1.11400	   -6.95694	 110.0	 1	    1.12000	    0.95000;
	231	 1	 12.27	 6.00	 0.0	 0.0	 1	    1.09900	  -14.09452	 110.0	 1	    1.12000	    0.95000;
	232	 1	 4.60	 1.00	 0.0	 0.0	 1	    1.08402	   -3.41396	 110.0	 1	    1.12000	    0.95000;
	233	 1	 9.21	 1.00	 0.0	 0.0	 1	    1.07285	   -8.10671	 110.0	 1	    1.12000	    0.95000;
	234	 1	 17.39	 14.00	 0.0	 0.0	 1	    1.06976	   -1.66156	 110.0	 1	    1.12000	    0.95000;
	235	 1	 4.19	 0.50	 0.0	 0.0	 1	    1.10189	  -13.78682	 110.0	 1	    1.12000	    0.95000;
	236	 1	 9.41	 3.64	 0.0	 0.0	 1	    1.11761	   -6.14972	 110.0	 1	    1.12000	    0.95000;
	237	 1	 4.71	 0.30	 0.0	 0.0	 1	    1.10133	  -13.61572	 110.0	 1	    1.12000	    0.95000;
	238	 1	 6.14	 1.00	 0.0	 0.0	 1	    1.10046	   -8.72148	 110.0	 1	    1.12000	    0.95000;
	239	 2	 4.54	 1.18	 0.0	 0.0	 1	    1.09673	  -12.78129	 110.0	 1	    1.12000	    0.95000;
	240	 1	 7.88	 1.00	 0.0	 0.0	 1	    1.09549	  -17.57355	 110.0	 1	    1.12000	    0.95000;
	241	 1	 4.71	 1.67	 0.0	 0.0	 1	    1.11385	   -6.65001	 110.0	 1	    1.12000	    0.95000;
	242	 1	 7.16	 0.70	 0.0	 0.0	 1	    1.11790	   -4.30136	 110.0	 1	    1.12000	    0.95000;
	243	 1	 0.00	 0.00	 0.0	 0.0	 1	    1.11800	   -4.28319	 110.0	 1	    1.12000	    0.95000;
	244	 1	 2.35	 1.40	 0.0	 0.0	 1	    1.11823	   -5.38511	 110.0	 1	    1.12000	    0.95000;
	245	 1	 0.00	 0.00	 0.0	 0.0	 1	    1.08066	    0.58856	 110.0	 1	    1.12000	    0.95000;
	246	 2	 2.09	 5.00	 0.0	 0.0	 1	    1.08691	    3.76422	 22.0	 1	    1.12000	    0.95000;
	247	 1	 7.16	 1.50	 0.0	 0.0	 1	    1.10890	  -10.82852	 110.0	 1	    1.12000	    0.95000;
	248	 1	 2.05	 0.50	 0.0	 0.0	 1	    1.11021	  -11.31126	 110.0	 1	    1.12000	    0.95000;
	249	 1	 2.05	 0.50	 0.0	 0.0	 1	    1.11726	   -9.95793	 110.0	 1	    1.12000	    0.95000;
	250	 1	 3.07	 0.50	 0.0	 0.0	 1	    1.07849	  -14.59056	 110.0	 1	    1.12000	    0.95000;
	251	 1	 2.97	 0.50	 0.0	 0.0	 1	    1.10928	  -13.91234	 110.0	 1	    1.12000	    0.95000;
	252	 1	 11.25	 7.00	 0.0	 0.0	 1	    1.09167	   -5.93287	 110.0	 1	    1.12000	    0.95000;
	253	 1	 22.50	 5.00	 0.0	 0.0	 1	    1.09809	  -14.19542	 110.0	 1	    1.12000	    0.95000;
	254	 1	 9.21	 2.00	 0.0	 0.0	 1	    1.09260	  -15.13920	 110.0	 1	    1.12000	    0.95000;
	255	 1	 19.43	 1.00	 0.0	 0.0	 1	    1.11173	   -9.75481	 110.0	 1	    1.12000	    0.95000;
	256	 1	 3.58	 0.50	 0.0	 0.0	 1	    1.11292	   -9.81470	 110.0	 1	    1.12000	    0.95000;
	257	 1	 2.56	 0.35	 0.0	 0.0	 1	    1.07937	   -0.46689	 110.0	 1	    1.12000	    0.95000;
	258	 1	 2.56	 0.35	 0.0	 0.0	 1	    1.07936	   -0.47497	 110.0	 1	    1.12000	    0.95000;
	259	 1	 7.16	 2.54	 0.0	 0.0	 1	    1.10703	   -7.55762	 110.0	 1	    1.12000	    0.95000;
	260	 1	 5.11	 1.00	 0.0	 0.0	 1	    1.07654	  -14.98528	 110.0	 1	    1.12000	    0.95000;
	261	 1	 2.25	 0.50	 0.0	 0.0	 1	    1.11506	  -11.56036	 110.0	 1	    1.12000	    0.95000;
	262	 1	 7.67	 1.60	 0.0	 0.0	 1	    1.09892	  -11.53056	 110.0	 1	    1.12000	    0.95000;
	263	 1	 0.82	 0.50	 0.0	 0.0	 1	    1.10002	  -14.67074	 110.0	 1	    1.12000	    0.95000;
	264	 1	 43.99	 37.00	 0.0	 0.0	 1	    1.07899	    0.20975	 110.0	 1	    1.12000	    0.95000;
	265	 1	 46.03	 40.00	 0.0	 0.0	 1	    1.07698	   -3.13055	 110.0	 1	    1.12000	    0.95000;
	266	 1	 3.07	 1.00	 0.0	 0.0	 1	    1.10378	  -13.75855	 110.0	 1	    1.12000	    0.95000;
	267	 1	 8.70	 0.70	 0.0	 0.0	 1	    1.10685	  -13.18461	 110.0	 1	    1.12000	    0.95000;
	268	 1	 5.63	 1.10	 0.0	 0.0	 1	    1.11070	  -13.87737	 110.0	 1	    1.12000	    0.95000;
	269	 1	 8.18	 1.50	 0.0	 0.0	 1	    1.11081	   -7.80179	 110.0	 1	    1.12000	    0.95000;
	270	 1	 6.14	 1.50	 0.0	 0.0	 1	    1.08020	  -14.19037	 110.0	 1	    1.12000	    0.95000;
	271	 1	 11.25	 2.75	 0.0	 0.0	 1	    1.10021	  -12.90349	 110.0	 1	    1.12000	    0.95000;
	272	 1	 0.10	 0.00	 0.0	 0.0	 1	    1.09877	  -13.65772	 110.0	 1	    1.12000	    0.95000;
	273	 1	 0.10	 0.03	 0.0	 0.0	 1	    1.11819	  -10.46390	 110.0	 1	    1.12000	    0.95000;
	274	 1	 0.10	 0.03	 0.0	 0.0	 1	    1.11424	  -10.75618	 110.0	 1	    1.12000	    0.95000;
	275	 1	 7.86	 3.94	 0.0	 0.0	 1	    1.11557	   -6.55240	 110.0	 1	    1.12000	    0.95000;
	276	 1	 5.24	 2.63	 0.0	 0.0	 1	    1.11707	   -6.11697	 110.0	 1	    1.12000	    0.95000;
	277	 1	 5.52	 1.20	 0.0	 0.0	 1	    1.10176	   -7.30761	 110.0	 1	    1.12000	    0.95000;
	278	 1	 1.94	 0.00	 0.0	 0.0	 1	    1.11583	   -6.74296	 110.0	 1	    1.12000	    0.95000;
	279	 1	 5.34	 0.00	 0.0	 0.0	 1	    1.11042	   -7.49547	 110.0	 1	    1.12000	    0.95000;
	280	 1	 11.25	 3.00	 0.0	 0.0	 1	    1.11172	  -10.76305	 110.0	 1	    1.12000	    0.95000;
	281	 1	 8.18	 1.00	 0.0	 0.0	 1	    1.08734	  -12.43299	 110.0	 1	    1.12000	    0.95000;
	282	 1	 23.53	 21.00	 0.0	 0.0	 1	    1.06893	   -2.74995	 110.0	 1	    1.12000	    0.95000;
	283	 1	 16.37	 13.00	 0.0	 0.0	 1	    1.06881	   -2.72734	 110.0	 1	    1.12000	    0.95000;
	284	 1	 8.18	 3.17	 0.0	 0.0	 1	    1.11436	   -6.32632	 110.0	 1	    1.12000	    0.95000;
	285	 1	 11.25	 1.60	 0.0	 0.0	 1	    1.11034	   -7.32495	 110.0	 1	    1.12000	    0.95000;
	286	 1	 6.14	 0.50	 0.0	 0.0	 1	    1.11082	   -9.85631	 110.0	 1	    1.12000	    0.95000;
	287	 1	 3.40	 0.00	 0.0	 0.0	 1	    1.11556	   -7.56474	 110.0	 1	    1.12000	    0.95000;
	288	 1	 2.56	 0.50	 0.0	 0.0	 1	    1.09462	  -12.81978	 110.0	 1	    1.12000	    0.95000;
	289	 1	 2.56	 0.60	 0.0	 0.0	 1	    1.10590	   -9.39413	 110.0	 1	    1.12000	    0.95000;
	290	 1	 16.88	 6.00	 0.0	 0.0	 1	    1.08824	  -12.32102	 110.0	 1	    1.12000	    0.95000;
	291	 2	 10.23	 1.00	 0.0	 0.0	 1	    1.11666	  -11.32713	 110.0	 1	    1.12000	    0.95000;
	292	 1	 5.52	 1.96	 0.0	 0.0	 1	    1.11454	   -6.04571	 110.0	 1	    1.12000	    0.95000;
	293	 1	 2.05	 1.30	 0.0	 0.0	 1	    1.10240	   -8.63881	 110.0	 1	    1.12000	    0.95000;
	294	 2	 4.91	 0.80	 0.0	 0.0	 1	    1.11191	  -12.76208	 110.0	 1	    1.12000	    0.95000;
	295	 1	 6.55	 0.90	 0.0	 0.0	 1	    1.10595	   -9.25196	 110.0	 1	    1.12000	    0.95000;
	296	 1	 4.09	 2.00	 0.0	 0.0	 1	    1.10954	   -6.49934	 110.0	 1	    1.12000	    0.95000;
	297	 1	 7.67	 2.97	 0.0	 0.0	 1	    1.11371	   -6.94167	 110.0	 1	    1.12000	    0.95000;
	298	 1	 10.33	 3.67	 0.0	 0.0	 1	    1.11291	   -7.04306	 110.0	 1	    1.12000	    0.95000;
	299	 2	 10.23	 3.50	 0.0	 0.0	 1	    1.10497	   -7.80159	 110.0	 1	    1.12000	    0.95000;
	300	 1	 0.00	 0.00	 0.0	 0.0	 1	    1.11733	   -6.12113	 110.0	 1	    1.12000	    0.95000;
	301	 1	 4.09	 0.50	 0.0	 0.0	 1	    1.06077	   -3.23539	 110.0	 1	    1.12000	    0.95000;
	302	 1	 8.59	 3.33	 0.0	 0.0	 1	    1.11457	   -6.04099	 110.0	 1	    1.12000	    0.95000;
	303	 1	 10.13	 3.59	 0.0	 0.0	 1	    1.11379	   -6.63178	 110.0	 1	    1.12000	    0.95000;
	304	 1	 14.01	 4.97	 0.0	 0.0	 1	    1.11556	   -6.55989	 110.0	 1	    1.12000	    0.95000;
	305	 1	 15.65	 5.55	 0.0	 0.0	 1	    1.11294	   -7.11334	 110.0	 1	    1.12000	    0.95000;
	306	 2	 82.31	 52.19	 0.0	 0.0	 1	    1.11871	   -6.19540	 110.0	 1	    1.12000	    0.95000;
	307	 2	 54.90	 20.97	 0.0	 0.0	 1	    1.11361	   -7.14132	 110.0	 1	    1.12000	    0.95000;
	308	 2	 19.95	 9.47	 0.0	 0.0	 1	    1.11516	   -6.76997	 110.0	 1	    1.12000	    0.95000;
	309	 1	 0.00	 0.00	 0.0	 0.0	 1	    1.11342	   -7.00407	 110.0	 1	    1.12000	    0.95000;
	310	 2	 38.73	 19.74	 0.0	 0.0	 1	    1.11707	   -6.60065	 110.0	 1	    1.12000	    0.95000;
	311	 2	 31.24	 16.42	 0.0	 0.0	 1	    1.11740	   -6.25658	 110.0	 1	    1.12000	    0.95000;
	312	 1	 8.49	 0.80	 0.0	 0.0	 1	    1.10864	   -8.55380	 110.0	 1	    1.12000	    0.95000;
	313	 1	 1.94	 0.00	 0.0	 0.0	 1	    1.11477	   -7.34847	 110.0	 1	    1.12000	    0.95000;
	314	 1	 1.02	 0.50	 0.0	 0.0	 1	    1.10057	  -12.39813	 110.0	 1	    1.12000	    0.95000;
	315	 1	 5.88	 0.75	 0.0	 0.0	 1	    1.09707	  -12.75706	 110.0	 1	    1.12000	    0.95000;
	316	 1	 8.95	 1.25	 0.0	 0.0	 1	    1.09713	  -12.74736	 110.0	 1	    1.12000	    0.95000;