%%%%%%%%%%%%%%%%%%%%%%%%%%%%%%%%%%%%%%%%%%%%%%%%%%%%%%%%%%%%%%%%%%%%%%%%%%%
%%%%                                                                  %%%%%
%%%%    IEEE PES Power Grid Library - Optimal Power Flow - v17.07     %%%%%
%%%%          (https://github.com/power-grid-lib/pglib-opf)           %%%%%
%%%%             Benchmark Group - Active Power Increase              %%%%%
%%%%                         27 - June - 2017                         %%%%%
%%%%                                                                  %%%%%
%%%%%%%%%%%%%%%%%%%%%%%%%%%%%%%%%%%%%%%%%%%%%%%%%%%%%%%%%%%%%%%%%%%%%%%%%%%
function mpc = pglib_opf_case1951_rte__api
mpc.version = '2';
mpc.baseMVA = 100.0;

%% bus data
%	bus_i	type	Pd	Qd	Gs	Bs	area	Vm	Va	baseKV	zone	Vmax	Vmin
mpc.bus = [
	1	 1	 43.66	 19.50	 0.0	 0.0	 1	    1.06542	  -21.29727	 225.0	 1	    1.08889	    0.88889;
	2	 1	 0.00	 0.00	 0.0	 0.0	 1	    1.10010	   -0.47253	 380.0	 1	    1.10263	    1.04841;
	3	 1	 294.14	 16.40	 0.0	 0.0	 1	    1.06259	  -25.98317	 225.0	 1	    1.08444	    1.00444;
	4	 1	 0.00	 0.00	 0.0	 0.0	 1	    1.09106	   -3.48885	 150.0	 1	    1.10667	    0.90000;
	5	 1	 62.14	 13.50	 0.0	 0.0	 1	    1.08688	   -6.56650	 225.0	 1	    1.08889	    0.93333;
	6	 1	 43.90	 11.60	 0.0	 0.0	 1	    1.08073	   -8.40110	 225.0	 1	    1.08889	    0.93333;
	7	 1	 0.00	 0.00	 0.0	 0.0	 1	    1.08824	   -7.41897	 380.0	 1	    1.10526	    1.03947;
	8	 1	 0.00	 0.00	 0.0	 0.0	 1	    1.08646	   -8.22200	 380.0	 1	    1.10526	    1.03947;
	9	 1	 0.00	 0.00	 0.0	 0.0	 1	    1.06831	  -30.09391	 225.0	 1	    1.09035	    1.00444;
	10	 1	 232.00	 48.90	 0.0	 0.0	 1	    1.04474	  -14.00898	 225.0	 1	    1.08889	    0.93333;
	11	 1	 69.22	 14.60	 0.0	 0.0	 1	    1.05991	  -30.67615	 225.0	 1	    1.08889	    1.00444;
	12	 1	 33.35	 24.40	 0.0	 0.0	 1	    1.07991	  -24.84827	 225.0	 1	    1.08889	    1.00444;
	13	 1	 212.93	 52.50	 0.0	 0.0	 1	    1.05969	  -30.67900	 225.0	 1	    1.08889	    1.00444;
	14	 1	 90.93	 7.30	 0.0	 0.0	 1	    1.08252	  -12.74642	 225.0	 1	    1.08252	    0.95000;
	15	 1	 0.00	 0.00	 0.0	 0.0	 1	    1.08889	  -16.99323	 225.0	 1	    1.08889	    1.00444;
	16	 1	 0.00	 0.00	 0.0	 0.0	 1	    1.08889	  -17.07313	 225.0	 1	    1.08889	    1.00444;
	17	 1	 79.41	 0.90	 0.0	 0.0	 1	    1.07562	  -13.87536	 225.0	 1	    1.08889	    0.88889;
	18	 1	 14.75	 7.10	 0.0	 0.0	 1	    1.07408	   -2.86785	 225.0	 1	    1.09633	    0.98667;
	19	 1	 81.45	 23.00	 0.0	 0.0	 1	    1.08075	  -24.25750	 225.0	 1	    1.08889	    1.00444;
	20	 1	 35.03	 7.20	 0.0	 0.0	 1	    1.08082	  -24.25420	 225.0	 1	    1.08889	    1.00444;
	21	 1	 93.33	 31.20	 0.0	 0.0	 1	    1.06314	  -25.82102	 225.0	 1	    1.08889	    1.00444;
	22	 1	 126.68	 22.80	 0.0	 0.0	 1	    1.05953	  -11.18219	 225.0	 1	    1.08889	    0.98667;
	23	 1	 49.30	 2.70	 0.0	 0.0	 1	    1.04591	  -17.93723	 225.0	 1	    1.08889	    0.88889;
	25	 1	 67.42	 8.10	 0.0	 0.0	 1	    1.06523	  -23.51998	 225.0	 1	    1.08444	    1.00889;
	26	 1	 35.15	 6.40	 0.0	 0.0	 1	    1.06562	  -23.46329	 225.0	 1	    1.08444	    1.00889;
	27	 1	 122.48	 38.00	 0.0	 0.0	 1	    1.03896	  -12.62667	 225.0	 1	    1.08889	    0.93333;
	28	 1	 206.45	 40.00	 0.0	 0.0	 1	    1.06026	  -26.90517	 225.0	 1	    1.08889	    1.00444;
	29	 1	 0.00	 0.00	 0.0	 0.0	 1	    1.10044	   -0.43403	 380.0	 1	    1.10526	    1.04842;
	30	 1	 0.00	 0.00	 0.0	 0.0	 1	    1.10025	   -0.42897	 380.0	 1	    1.10526	    1.04842;
	31	 1	 43.43	 31.70	 0.0	 0.0	 1	    1.08030	   -4.72531	 225.0	 1	    1.08444	    1.00889;
	33	 1	 159.78	 20.10	 0.0	 0.0	 1	    1.07171	   -9.64803	 225.0	 1	    1.08444	    1.00889;
	34	 1	 107.24	 29.60	 0.0	 0.0	 1	    1.02729	  -29.69979	 225.0	 1	    1.08889	    1.00444;
	2013	 1	 0.00	 0.00	 0.0	 0.0	 1	    1.06130	  -30.45584	 225.0	 1	    1.08889	    1.00444;
	35	 1	 10.30	 -0.40	 0.0	 0.0	 1	    1.05079	   -5.48704	 150.0	 1	    1.08000	    0.96667;
	36	 1	 26.75	 6.70	 0.0	 80.0	 1	    1.06112	  -20.87535	 225.0	 1	    1.09212	    1.00000;
	37	 1	 0.00	 0.00	 0.0	 0.0	 1	    1.06992	  -17.05145	 380.0	 1	    1.10526	    1.04785;
	38	 1	 172.98	 18.90	 0.0	 0.0	 1	    1.03264	  -16.05648	 225.0	 1	    1.08889	    0.98667;
	39	 1	 141.31	 31.50	 0.0	 0.0	 1	    1.07411	  -13.71559	 225.0	 1	    1.08889	    0.96889;
	40	 1	 233.68	 53.60	 0.0	 0.0	 1	    1.07940	  -13.37057	 380.0	 1	    1.10526	    1.00000;
	41	 1	 77.61	 12.60	 0.0	 0.0	 1	    1.07004	  -13.07541	 225.0	 1	    1.08889	    0.93333;
	42	 1	 53.50	 15.60	 0.0	 0.0	 1	    1.04966	  -16.15981	 225.0	 1	    1.08889	    0.88889;
	43	 1	 56.26	 11.70	 0.0	 0.0	 1	    1.04981	  -16.16601	 225.0	 1	    1.08889	    0.88889;
	44	 1	 457.40	 62.50	 0.0	 0.0	 1	    1.04734	  -35.59411	 225.0	 1	    1.08496	    1.00444;
	45	 1	 161.50	 -38.50	 0.0	 0.0	 1	    1.06855	  -27.73694	 225.0	 1	    1.08889	    1.00444;
	46	 2	 0.00	 0.00	 0.0	 0.0	 1	    1.10843	   11.16798	 150.0	 1	    1.10843	    0.90000;
	47	 1	 0.00	 0.00	 0.0	 0.0	 1	    1.04906	  -29.93131	 225.0	 1	    1.08889	    1.00444;
	48	 1	 0.00	 0.00	 0.0	 0.0	 1	    1.04906	  -29.93131	 225.0	 1	    1.08889	    1.00444;
	49	 1	 148.15	 43.40	 0.0	 0.0	 1	    1.04906	  -29.93130	 225.0	 1	    1.08889	    1.00444;
	50	 1	 12.00	 3.70	 0.0	 0.0	 1	    1.06016	  -27.53560	 225.0	 1	    1.08889	    1.00444;
	51	 1	 0.00	 0.00	 0.0	 0.0	 1	    1.08598	   -8.88891	 225.0	 1	    1.08889	    1.00000;
	52	 1	 89.49	 28.00	 0.0	 0.0	 1	    1.04619	  -18.90486	 225.0	 1	    1.08889	    0.88889;
	53	 1	 192.17	 38.20	 0.0	 0.0	 1	    1.05999	   -8.09545	 225.0	 1	    1.08889	    0.96889;
	54	 1	 0.00	 0.00	 0.0	 0.0	 1	    1.07650	   -4.47704	 380.0	 1	    1.10526	    1.00000;
	55	 1	 37.19	 11.00	 0.0	 0.0	 1	    1.07662	   -7.71121	 225.0	 1	    1.08444	    1.00889;
	56	 1	 14.70	 -1.00	 0.0	 0.0	 1	    1.07698	   -7.68911	 225.0	 1	    1.08444	    1.00889;
	1827	 1	 241.36	 11.70	 0.0	 0.0	 1	    1.04598	  -34.02847	 225.0	 1	    1.08889	    1.00444;
	57	 1	 68.38	 3.00	 0.0	 0.0	 1	    1.07447	  -10.36670	 225.0	 1	    1.08945	    0.93333;
	58	 2	 0.00	 0.00	 0.0	 0.0	 1	    1.10481	   10.27715	 150.0	 1	    1.10862	    0.90000;
	59	 1	 66.46	 19.70	 0.0	 0.0	 1	    1.08184	   -5.68467	 225.0	 1	    1.08444	    1.00889;
	60	 1	 66.82	 41.60	 0.0	 0.0	 1	    1.08150	   -5.68159	 225.0	 1	    1.08444	    1.00889;
	61	 1	 0.00	 0.00	 0.0	 0.0	 1	    1.07873	   -6.12955	 225.0	 1	    1.08889	    0.97778;
	62	 1	 19.67	 4.90	 0.0	 0.0	 1	    1.07055	  -19.10435	 225.0	 1	    1.08889	    0.88889;
	63	 1	 1.92	 12.70	 0.0	 0.0	 1	    1.08889	   -4.95926	 225.0	 1	    1.08889	    0.93333;
	64	 1	 35.63	 12.00	 0.0	 0.0	 1	    1.07831	  -25.20230	 225.0	 1	    1.08889	    1.00444;
	65	 1	 65.62	 13.60	 0.0	 0.0	 1	    1.06756	  -30.20231	 225.0	 1	    1.08889	    1.00444;
	66	 1	 -21.90	 -5.10	 0.0	 0.0	 1	    1.08297	   -9.07850	 225.0	 1	    1.08889	    1.00000;
	67	 1	 29.20	 -2.50	 0.0	 0.0	 1	    1.07501	  -19.88144	 225.0	 1	    1.08889	    0.98667;
	68	 1	 0.00	 0.00	 0.0	 80.0	 1	    1.06195	  -16.40028	 225.0	 1	    1.08889	    0.88889;
	69	 1	 0.00	 0.00	 0.0	 0.0	 1	    1.05115	  -17.36155	 225.0	 1	    1.08889	    0.88889;
	70	 1	 0.00	 0.00	 0.0	 0.0	 1	    1.06947	  -11.94213	 380.0	 1	    1.10526	    1.01316;
	71	 1	 91.53	 14.30	 0.0	 0.0	 1	    1.07795	  -24.75029	 225.0	 1	    1.08889	    1.00444;
	72	 1	 34.79	 5.00	 0.0	 0.0	 1	    1.07227	  -25.21383	 225.0	 1	    1.08889	    1.00444;
	73	 1	 0.00	 0.00	 0.0	 0.0	 1	    1.07435	   -5.61347	 225.0	 1	    1.08889	    0.97778;
	74	 1	 0.00	 0.00	 0.0	 0.0	 1	    1.07432	   -5.61196	 225.0	 1	    1.08889	    0.97778;
	75	 1	 218.80	 31.20	 0.0	 0.0	 1	    1.07169	   -6.38851	 225.0	 1	    1.08444	    1.00889;
	76	 1	 0.00	 0.00	 0.0	 0.0	 1	    1.05484	  -30.42150	 225.0	 1	    1.08444	    1.00444;
	77	 1	 0.00	 0.00	 0.0	 0.0	 1	    1.07056	  -22.94289	 380.0	 1	    1.10263	    1.04211;
	78	 1	 139.27	 17.60	 0.0	 0.0	 1	    1.05450	  -30.49570	 225.0	 1	    1.08444	    1.00444;
	79	 1	 -7.40	 0.90	 0.0	 0.0	 1	    1.08108	  -24.64941	 225.0	 1	    1.08936	    1.00444;
	80	 1	 16.79	 12.60	 0.0	 0.0	 1	    1.08094	  -24.66125	 225.0	 1	    1.08936	    1.00444;
	81	 1	 58.42	 2.90	 0.0	 0.0	 1	    1.08126	   -7.74374	 225.0	 1	    1.08889	    0.88889;
	82	 1	 33.47	 3.30	 0.0	 0.0	 1	    1.08124	  -16.89406	 225.0	 1	    1.08124	    0.95000;
	83	 1	 74.25	 19.70	 0.0	 0.0	 1	    1.05232	   -6.04285	 225.0	 1	    1.08889	    0.88889;
	84	 1	 158.10	 -16.50	 0.0	 0.0	 1	    1.05220	  -21.56483	 225.0	 1	    1.08889	    1.00000;
	85	 1	 0.00	 0.00	 0.0	 0.0	 1	    1.04070	  -10.30762	 225.0	 1	    1.08889	    1.00000;
	86	 1	 484.27	 124.80	 0.0	 0.0	 1	    1.07927	  -10.25338	 380.0	 1	    1.10526	    1.05070;
	87	 1	 130.28	 44.40	 0.0	 0.0	 1	    1.05536	  -10.56696	 225.0	 1	    1.08889	    1.00000;
	88	 1	 168.78	 36.80	 0.0	 0.0	 1	    1.06700	  -13.13698	 225.0	 1	    1.08889	    1.00000;
	89	 2	 0.00	 0.00	 0.0	 0.0	 1	    1.04235	   -6.16183	 150.0	 1	    1.10000	    0.90000;
	90	 1	 67.90	 23.20	 0.0	 0.0	 1	    1.02813	  -16.84056	 225.0	 1	    1.08889	    0.98667;
	91	 1	 14.99	 6.10	 0.0	 0.0	 1	    1.08125	   -3.01536	 225.0	 1	    1.08444	    1.00889;
	92	 1	 0.00	 0.00	 0.0	 0.0	 1	    1.09871	  -12.94146	 380.0	 1	    1.10526	    1.04211;
	93	 1	 0.00	 0.00	 0.0	 0.0	 1	    1.09966	  -14.21311	 380.0	 1	    1.10526	    1.04211;
	96	 1	 15.23	 0.60	 0.0	 0.0	 1	    1.05687	  -20.65531	 225.0	 1	    1.08889	    1.00000;
	97	 1	 21.95	 11.10	 0.0	 0.0	 1	    1.05683	  -29.33023	 225.0	 1	    1.08889	    1.00444;
	98	 1	 108.92	 9.60	 0.0	 0.0	 1	    1.05633	    1.61824	 150.0	 1	    1.10000	    0.90000;
	99	 1	 82.10	 -2.60	 0.0	 0.0	 1	    1.08460	  -12.65836	 225.0	 1	    1.08889	    1.00000;
	100	 2	 1.30	 0.00	 0.0	 0.0	 1	    1.08294	  -24.06561	 225.0	 1	    1.08294	    0.95000;
	101	 1	 0.00	 0.00	 0.0	 0.0	 1	    1.08737	   -6.34767	 225.0	 1	    1.08889	    0.93333;
	102	 1	 0.00	 0.00	 0.0	 0.0	 1	    1.08723	   -8.06827	 380.0	 1	    1.10526	    1.03947;
	103	 1	 0.00	 0.00	 0.0	 0.0	 1	    1.08850	   -7.34079	 380.0	 1	    1.10526	    1.03947;
	104	 1	 0.00	 0.00	 0.0	 0.0	 1	    1.06030	  -30.64818	 225.0	 1	    1.08889	    1.00444;
	1828	 1	 104.24	 24.60	 0.0	 0.0	 1	    1.02504	  -30.03210	 225.0	 1	    1.08889	    1.00444;
	105	 1	 0.00	 0.00	 0.0	 0.0	 1	    1.04510	   -8.24431	 225.0	 1	    1.08889	    0.98667;
	106	 1	 15.35	 7.60	 0.0	 0.0	 1	    1.06014	  -30.65971	 225.0	 1	    1.08889	    1.00444;
	107	 1	 180.06	 27.10	 0.0	 0.0	 1	    1.04271	  -16.26680	 225.0	 1	    1.08889	    0.93333;
	108	 1	 0.00	 0.00	 0.0	 0.0	 1	    1.07895	  -12.55413	 380.0	 1	    1.10526	    1.03947;
	109	 1	 32.10	 -1.60	 0.0	 0.0	 1	    1.07094	  -18.46295	 225.0	 1	    1.08889	    1.00000;
	110	 1	 35.27	 1.20	 0.0	 0.0	 1	    1.06669	  -26.80469	 225.0	 1	    1.08986	    1.00444;
	111	 1	 158.23	 2.80	 0.0	 0.0	 1	    1.06830	  -19.51646	 225.0	 1	    1.09612	    1.00000;
	112	 1	 209.81	 55.60	 0.0	 0.0	 1	    1.06269	   -4.73099	 225.0	 1	    1.08889	    0.98667;
	113	 1	 155.47	 33.20	 0.0	 0.0	 1	    1.06834	  -30.08549	 225.0	 1	    1.09036	    1.00444;
	114	 1	 294.62	 120.60	 0.0	 0.0	 1	    1.03681	  -19.43653	 225.0	 1	    1.08889	    0.92444;
	115	 1	 98.49	 14.70	 0.0	 0.0	 1	    1.09424	   -2.87362	 225.0	 1	    1.09614	    0.98667;
	117	 1	 0.00	 0.00	 0.0	 0.0	 1	    1.09697	   -0.14601	 380.0	 1	    1.10526	    1.03947;
	119	 1	 192.00	 -29.80	 0.0	 0.0	 1	    1.04760	  -48.37333	 225.0	 1	    1.08444	    1.00444;
	120	 1	 21.60	 -16.90	 0.0	 0.0	 1	    1.06918	  -22.01610	 225.0	 1	    1.08444	    1.00889;
	121	 1	 0.00	 0.00	 0.0	 0.0	 1	    1.06616	  -18.87329	 380.0	 1	    1.10263	    1.02895;
	122	 1	 -0.10	 -4.20	 0.0	 0.0	 1	    1.04327	  -16.27334	 225.0	 1	    1.08889	    0.93333;
	123	 1	 207.05	 37.20	 0.0	 0.0	 1	    1.03819	  -11.73322	 225.0	 1	    1.08889	    0.93333;
	124	 1	 38.27	 29.80	 0.0	 0.0	 1	    1.00593	  -25.33250	 63.0	 1	    1.07937	    0.92063;
	125	 2	 0.00	 0.00	 0.0	 0.0	 1	    1.04721	   -0.94036	 225.0	 1	    1.07476	    0.95000;
	126	 1	 5.28	 5.30	 0.0	 0.0	 1	    1.08597	  -11.31285	 225.0	 1	    1.09768	    1.00000;
	127	 1	 0.00	 0.00	 0.0	 0.0	 1	    1.08515	  -11.11840	 380.0	 1	    1.10526	    1.05263;
	128	 1	 0.00	 0.00	 0.0	 0.0	 1	    1.08522	  -11.11843	 380.0	 1	    1.10526	    1.05263;
	129	 1	 0.00	 0.00	 0.0	 0.0	 1	    1.08522	  -11.11339	 380.0	 1	    1.10526	    1.05263;
	130	 1	 0.00	 0.00	 0.0	 0.0	 1	    1.08498	  -11.12565	 380.0	 1	    1.10526	    1.05263;
	131	 1	 0.00	 0.00	 0.0	 0.0	 1	    1.09507	   -2.84674	 225.0	 1	    1.09645	    0.98667;
	132	 1	 0.00	 0.00	 0.0	 0.0	 1	    1.09538	   -2.83255	 225.0	 1	    1.09645	    0.98667;
	133	 1	 0.00	 0.00	 0.0	 0.0	 1	    1.09729	    0.01779	 380.0	 1	    1.10526	    1.03947;
	134	 1	 148.15	 26.50	 0.0	 0.0	 1	    1.05929	  -16.08063	 225.0	 1	    1.08889	    0.96889;
	135	 1	 46.90	 10.10	 0.0	 0.0	 1	    1.06542	  -23.44418	 225.0	 1	    1.08444	    1.00889;
	136	 1	 4.40	 -3.30	 0.0	 0.0	 1	    1.09515	  -14.86381	 380.0	 1	    1.10526	    1.03947;
	137	 1	 200.21	 46.70	 0.0	 0.0	 1	    1.06072	  -12.00808	 225.0	 1	    1.08889	    0.93333;
	138	 1	 0.00	 0.00	 0.0	 0.0	 1	    1.08311	   -6.30286	 380.0	 1	    1.10526	    1.03947;
	140	 1	 242.32	 20.20	 0.0	 0.0	 1	    1.08288	   -1.93288	 225.0	 1	    1.08444	    1.00889;
	142	 1	 231.30	 -18.30	 0.0	 0.0	 1	    1.07050	  -23.90784	 225.0	 1	    1.08444	    1.00444;
	143	 1	 59.14	 7.80	 0.0	 0.0	 1	    1.05901	  -12.89017	 225.0	 1	    1.08889	    0.93333;
	144	 1	 48.70	 10.30	 0.0	 0.0	 1	    1.05900	  -12.89006	 225.0	 1	    1.08889	    0.93333;
	145	 1	 49.80	 -6.20	 0.0	 0.0	 1	    1.06676	  -26.78864	 225.0	 1	    1.08952	    1.00444;
	146	 1	 0.00	 0.00	 0.0	 0.0	 1	    1.09107	   -3.06446	 225.0	 1	    1.09478	    1.00000;
	147	 1	 0.00	 0.00	 0.0	 0.0	 1	    1.09107	   -3.06444	 225.0	 1	    1.09478	    1.00000;
	148	 1	 82.41	 4.50	 0.0	 0.0	 1	    1.05428	  -21.09796	 225.0	 1	    1.08889	    1.00000;
	149	 1	 30.00	 -1.50	 0.0	 0.0	 1	    1.07205	  -25.60840	 225.0	 1	    1.08889	    1.00444;
	150	 1	 62.62	 3.90	 0.0	 0.0	 1	    1.08288	   -2.85344	 225.0	 1	    1.08444	    1.00889;
	151	 1	 48.22	 6.80	 0.0	 0.0	 1	    1.04716	  -22.46390	 225.0	 1	    1.08889	    1.00000;
	152	 1	 0.00	 0.00	 0.0	 0.0	 1	    1.08244	  -11.17765	 225.0	 1	    1.08444	    1.00889;
	153	 1	 0.00	 0.00	 0.0	 0.0	 1	    1.08230	  -11.19151	 225.0	 1	    1.08444	    1.00889;
	154	 1	 0.00	 0.00	 0.0	 0.0	 1	    1.08250	   -5.77327	 225.0	 1	    1.08444	    1.00889;
	155	 1	 0.00	 0.00	 0.0	 0.0	 1	    1.08519	   -4.37355	 380.0	 1	    1.10263	    1.02895;
	156	 1	 199.01	 38.20	 0.0	 0.0	 1	    1.05133	   -5.43933	 225.0	 1	    1.08889	    0.88889;
	157	 1	 0.00	 0.00	 0.0	 0.0	 1	    1.08598	  -11.31254	 225.0	 1	    1.09766	    1.00000;
	158	 1	 0.00	 0.00	 0.0	 0.0	 1	    1.08493	  -11.20091	 380.0	 1	    1.10526	    1.05263;
	159	 1	 37.10	 -0.10	 0.0	 0.0	 1	    1.07121	  -20.64229	 225.0	 1	    1.08889	    0.98667;
	160	 1	 21.47	 14.60	 0.0	 0.0	 1	    1.05808	   -9.46918	 225.0	 1	    1.08889	    1.00000;
	161	 1	 0.00	 0.00	 0.0	 0.0	 1	    1.04345	  -52.08387	 225.0	 1	    1.08444	    1.00444;
	162	 1	 0.00	 0.00	 0.0	 0.0	 1	    1.04345	  -52.08387	 225.0	 1	    1.08444	    1.00444;
	163	 1	 0.00	 0.00	 0.0	 0.0	 1	    1.04346	  -52.08407	 225.0	 1	    1.08444	    1.00444;
	164	 1	 96.90	 -7.40	 0.0	 0.0	 1	    1.04345	  -52.08384	 225.0	 1	    1.08444	    1.00444;
	165	 1	 0.00	 0.00	 0.0	 0.0	 1	    1.04040	  -13.11613	 225.0	 1	    1.08889	    0.93333;
	166	 1	 8.50	 -5.20	 0.0	 0.0	 1	    1.05736	  -17.28921	 225.0	 1	    1.08889	    0.98667;
	167	 1	 0.00	 0.00	 0.0	 0.0	 1	    1.08936	   -1.53037	 225.0	 1	    1.08941	    1.00000;
	168	 1	 0.00	 0.00	 0.0	 0.0	 1	    1.10325	   -2.56211	 380.0	 1	    1.10526	    1.05263;
	169	 2	 0.00	 0.00	 0.0	 0.0	 1	    1.09076	   -6.69190	 225.0	 1	    1.10000	    0.90000;
	170	 1	 15.59	 4.00	 0.0	 0.0	 1	    1.05018	   -5.86403	 150.0	 1	    1.08000	    0.96667;
	171	 1	 60.46	 4.50	 0.0	 0.0	 1	    1.08033	  -24.20037	 225.0	 1	    1.08889	    1.00444;
	172	 1	 0.48	 0.60	 0.0	 0.0	 1	    1.08054	  -24.12974	 225.0	 1	    1.08889	    1.00444;
	173	 1	 29.10	 -7.90	 0.0	 0.0	 1	    1.05820	   -7.28110	 225.0	 1	    1.08889	    0.88889;
	175	 1	 0.00	 0.00	 0.0	 0.0	 1	    1.08920	   -2.88084	 225.0	 1	    1.09176	    1.00000;
	176	 1	 0.00	 0.00	 0.0	 0.0	 1	    1.08919	   -2.88084	 225.0	 1	    1.09176	    1.00000;
	177	 1	 0.00	 0.00	 0.0	 0.0	 1	    1.08919	   -2.88098	 225.0	 1	    1.09176	    1.00000;
	178	 1	 0.00	 0.00	 0.0	 0.0	 1	    1.08921	   -2.88115	 225.0	 1	    1.09176	    1.00000;
	179	 1	 0.00	 0.00	 0.0	 0.0	 1	    1.08921	   -2.88115	 225.0	 1	    1.09176	    1.00000;
	180	 2	 0.00	 0.00	 0.0	 0.0	 1	    1.10639	    0.41109	 380.0	 1	    1.10676	    0.90000;
	181	 1	 217.72	 39.90	 0.0	 0.0	 1	    1.04741	  -22.42523	 225.0	 1	    1.08889	    1.00000;
	182	 1	 38.39	 21.40	 0.0	 0.0	 1	    1.07406	   -6.38061	 225.0	 1	    1.08889	    0.98667;
	183	 1	 0.00	 0.00	 0.0	 0.0	 1	    1.09784	   -4.33201	 380.0	 1	    1.10526	    1.03947;
	184	 1	 0.00	 0.00	 0.0	 0.0	 1	    1.10294	   -4.47959	 380.0	 1	    1.10526	    1.03947;
	185	 1	 0.00	 0.00	 0.0	 0.0	 1	    1.10291	   -4.47608	 380.0	 1	    1.10526	    1.03947;
	186	 1	 0.00	 0.00	 0.0	 0.0	 1	    1.09721	   -4.33446	 380.0	 1	    1.10526	    1.03947;
	187	 1	 79.05	 23.30	 0.0	 0.0	 1	    1.06026	  -20.40356	 225.0	 1	    1.08889	    0.92444;
	188	 1	 6.48	 1.40	 0.0	 0.0	 1	    1.03410	  -16.02648	 225.0	 1	    1.08889	    0.98667;
	189	 1	 101.70	 -4.30	 0.0	 0.0	 1	    1.04949	  -42.19537	 225.0	 1	    1.08444	    1.00444;
	190	 1	 -6.80	 -0.20	 0.0	 0.0	 1	    1.09369	   -9.13269	 380.0	 1	    1.10263	    1.04211;
	191	 1	 -5.30	 -0.00	 0.0	 0.0	 1	    1.09372	   -9.12720	 380.0	 1	    1.10263	    1.04211;
	192	 1	 0.00	 0.00	 0.0	 0.0	 1	    1.07605	  -25.06592	 225.0	 1	    1.08889	    1.00444;
	193	 1	 0.00	 0.00	 0.0	 0.0	 1	    1.08049	   -6.00905	 225.0	 1	    1.08889	    0.97778;
	194	 1	 0.00	 0.00	 0.0	 0.0	 1	    1.08049	   -6.00905	 225.0	 1	    1.08889	    0.97778;
	195	 1	 162.54	 19.20	 0.0	 0.0	 1	    1.05640	  -17.17857	 225.0	 1	    1.08889	    0.96889;
	196	 1	 0.00	 0.00	 0.0	 0.0	 1	    1.08889	   -4.42292	 225.0	 1	    1.08889	    0.93333;
	197	 1	 0.00	 0.00	 0.0	 0.0	 1	    1.08889	   -5.87773	 225.0	 1	    1.08889	    0.93333;
	198	 1	 118.64	 26.50	 0.0	 0.0	 1	    1.03066	  -38.99212	 225.0	 1	    1.08444	    1.00444;
	199	 1	 299.20	 -25.20	 0.0	 0.0	 1	    1.06267	  -34.54434	 225.0	 1	    1.08444	    1.00444;
	200	 1	 0.00	 0.00	 0.0	 0.0	 1	    1.08194	   -5.19598	 225.0	 1	    1.08889	    0.97778;
	201	 1	 0.00	 0.00	 0.0	 0.0	 1	    1.08438	  -20.45637	 225.0	 1	    1.08444	    1.00444;
	202	 1	 253.35	 31.00	 0.0	 0.0	 1	    1.05839	  -21.97216	 225.0	 1	    1.08889	    0.95111;
	203	 1	 107.60	 19.50	 0.0	 0.0	 1	    1.07212	  -25.09775	 225.0	 1	    1.08889	    1.00444;
	204	 1	 110.60	 26.00	 0.0	 0.0	 1	    1.03337	  -16.20450	 225.0	 1	    1.08889	    0.98667;
	205	 1	 35.51	 2.70	 0.0	 0.0	 1	    1.06009	  -22.38815	 225.0	 1	    1.08444	    1.00889;
	206	 1	 0.00	 0.00	 0.0	 0.0	 1	    1.06375	  -19.93143	 380.0	 1	    1.10263	    1.02895;
	207	 1	 152.35	 40.50	 0.0	 0.0	 1	    1.07170	  -25.41881	 225.0	 1	    1.08889	    1.00444;
	1829	 2	 0.00	 0.00	 0.0	 0.0	 1	    1.07859	   -8.68566	 225.0	 1	    1.07859	    0.95000;
	208	 1	 0.00	 0.00	 0.0	 0.0	 1	    1.07847	   -8.73139	 225.0	 1	    1.08889	    0.88889;
	209	 1	 372.11	 64.50	 0.0	 80.0	 1	    1.05535	  -39.36650	 225.0	 1	    1.08444	    1.00444;
	210	 1	 74.49	 16.80	 0.0	 0.0	 1	    1.07634	   -2.48572	 225.0	 1	    1.09504	    0.98667;
	211	 1	 110.24	 12.10	 0.0	 0.0	 1	    1.07040	  -10.31978	 225.0	 1	    1.08444	    1.00889;
	212	 1	 26.80	 -0.90	 0.0	 0.0	 1	    1.07163	   -9.66165	 225.0	 1	    1.08444	    1.00889;
	213	 1	 159.54	 16.90	 0.0	 0.0	 1	    1.08133	   -5.90818	 225.0	 1	    1.08889	    0.93333;
	215	 1	 0.00	 0.00	 0.0	 0.0	 1	    1.10015	   -1.61242	 380.0	 1	    1.10526	    1.03947;
	216	 1	 114.08	 16.30	 0.0	 0.0	 1	    1.08012	  -10.78482	 380.0	 1	    1.10526	    1.03947;
	217	 1	 0.00	 0.00	 0.0	 0.0	 1	    1.08821	   -5.90767	 225.0	 1	    1.08889	    0.93333;
	218	 1	 0.00	 0.00	 0.0	 0.0	 1	    1.08798	   -5.44669	 225.0	 1	    1.08889	    0.93333;
	219	 1	 41.27	 10.10	 0.0	 0.0	 1	    1.08416	   -5.30328	 225.0	 1	    1.08444	    1.00889;
	220	 1	 2.64	 3.50	 0.0	 0.0	 1	    1.08437	   -5.26770	 225.0	 1	    1.08444	    1.00889;
	221	 1	 -7.50	 -7.30	 0.0	 0.0	 1	    1.07516	   -8.64438	 225.0	 1	    1.08444	    1.00889;
	222	 1	 102.20	 17.10	 0.0	 0.0	 1	    1.08238	  -30.44686	 225.0	 1	    1.08889	    1.00444;
	223	 1	 45.70	 1.20	 0.0	 0.0	 1	    1.07056	  -10.25595	 225.0	 1	    1.08444	    1.00889;
	224	 1	 21.40	 -2.10	 0.0	 0.0	 1	    1.07102	  -10.19281	 225.0	 1	    1.08444	    1.00889;
	225	 1	 8.40	 3.70	 0.0	 0.0	 1	    1.06992	  -17.31063	 150.0	 1	    1.10667	    0.94667;
	1830	 1	 0.00	 0.00	 0.0	 0.0	 1	    1.04348	  -49.90604	 225.0	 1	    1.08444	    1.00444;
	226	 1	 0.00	 0.00	 0.0	 0.0	 1	    1.04908	  -44.48815	 380.0	 1	    1.10263	    1.04211;
	227	 1	 180.40	 -2.00	 0.0	 0.0	 1	    1.07154	  -19.22076	 225.0	 1	    1.09795	    1.00000;
	228	 1	 0.00	 0.00	 0.0	 0.0	 1	    1.07242	  -17.13860	 380.0	 1	    1.10526	    1.05019;
	229	 1	 152.47	 31.00	 0.0	 0.0	 1	    1.06822	  -18.31556	 225.0	 1	    1.08889	    0.91111;
	230	 1	 0.00	 0.00	 0.0	 0.0	 1	    1.08271	   -8.71890	 380.0	 1	    1.10526	    1.00000;
	231	 1	 53.26	 13.20	 0.0	 0.0	 1	    1.06027	  -30.65342	 225.0	 1	    1.08889	    1.00444;
	232	 1	 58.78	 11.10	 0.0	 0.0	 1	    1.02518	  -30.02194	 225.0	 1	    1.08889	    1.00444;
	233	 1	 28.55	 0.40	 0.0	 0.0	 1	    1.07414	  -20.10833	 225.0	 1	    1.08889	    0.98667;
	234	 1	 0.48	 0.50	 0.0	 0.0	 1	    1.07437	  -20.02185	 225.0	 1	    1.08889	    0.98667;
	235	 1	 4.80	 1.00	 0.0	 0.0	 1	    1.06770	  -29.16227	 225.0	 1	    1.08889	    1.00444;
	236	 1	 36.47	 23.50	 0.0	 0.0	 1	    1.06678	  -29.20665	 225.0	 1	    1.08889	    1.00444;
	237	 1	 299.42	 70.00	 0.0	 0.0	 1	    1.03869	  -26.91690	 225.0	 1	    1.08889	    1.00444;
	238	 1	 0.00	 0.00	 0.0	 0.0	 1	    1.04617	  -25.46848	 225.0	 1	    1.08889	    1.00444;
	239	 1	 67.78	 14.20	 0.0	 0.0	 1	    1.06342	  -30.76672	 225.0	 1	    1.08889	    1.00444;
	240	 1	 70.30	 15.70	 0.0	 0.0	 1	    1.06273	  -30.82446	 225.0	 1	    1.08889	    1.00444;
	241	 2	 -50.00	 0.80	 0.0	 0.0	 1	    1.00504	    2.12564	 20.0	 1	    1.10000	    0.90000;
	242	 1	 0.00	 0.00	 0.0	 0.0	 1	    1.07502	   -3.79840	 150.0	 1	    1.08000	    0.96667;
	243	 1	 -9.20	 0.50	 0.0	 0.0	 1	    1.11309	    5.24206	 380.0	 1	    1.11402	    1.03947;
	244	 1	 34.67	 24.30	 0.0	 0.0	 1	    1.11056	    3.81318	 380.0	 1	    1.11482	    1.03947;
	245	 1	 21.83	 8.40	 0.0	 0.0	 1	    1.11264	    4.47823	 380.0	 1	    1.11264	    1.03947;
	246	 1	 -41.30	 6.50	 0.0	 0.0	 1	    1.11483	    4.68522	 380.0	 1	    1.11483	    1.03947;
	247	 1	 126.56	 26.50	 0.0	 0.0	 1	    1.07997	  -24.36572	 225.0	 1	    1.08889	    1.00444;
	248	 1	 0.00	 0.00	 0.0	 0.0	 1	    1.08807	  -11.07703	 225.0	 1	    1.08889	    1.00000;
	249	 1	 0.00	 0.00	 0.0	 0.0	 1	    1.08643	  -11.66746	 225.0	 1	    1.08889	    1.00000;
	250	 1	 0.00	 0.00	 0.0	 0.0	 1	    1.09420	  -11.56151	 380.0	 1	    1.10526	    1.05019;
	251	 1	 30.59	 1.20	 0.0	 0.0	 1	    1.08113	   -5.97707	 225.0	 1	    1.08889	    0.93333;
	252	 1	 206.21	 30.60	 0.0	 0.0	 1	    1.07256	  -19.26765	 380.0	 1	    1.10526	    1.03537;
	253	 1	 4.20	 0.00	 0.0	 0.0	 1	    1.06405	  -27.36557	 225.0	 1	    1.08889	    1.00444;
	254	 1	 0.00	 0.00	 0.0	 0.0	 1	    1.06524	  -27.29564	 225.0	 1	    1.08889	    1.00444;
	255	 1	 4.56	 7.10	 0.0	 0.0	 1	    1.06404	  -27.66728	 225.0	 1	    1.08889	    1.00444;
	256	 1	 0.00	 0.00	 0.0	 80.0	 1	    1.06579	  -26.47874	 225.0	 1	    1.08889	    1.00444;
	257	 1	 0.00	 0.00	 0.0	 0.0	 1	    1.07151	  -20.38486	 380.0	 1	    1.10526	    1.04211;
	258	 1	 0.00	 0.00	 0.0	 0.0	 1	    1.07044	  -20.43297	 380.0	 1	    1.10526	    1.04211;
	259	 1	 222.64	 81.40	 0.0	 0.0	 1	    1.02936	  -18.95097	 225.0	 1	    1.08889	    0.92889;
	260	 1	 142.75	 80.10	 0.0	 0.0	 1	    1.08001	  -10.79331	 380.0	 1	    1.10526	    1.03947;
	261	 1	 231.16	 31.70	 0.0	 0.0	 1	    1.08025	  -39.73620	 225.0	 1	    1.08444	    1.00444;
	262	 1	 18.35	 3.50	 0.0	 0.0	 1	    1.08296	   -3.79194	 225.0	 1	    1.08889	    0.93333;
	263	 1	 355.56	 84.90	 0.0	 0.0	 1	    1.09371	   -4.72564	 380.0	 1	    1.10526	    1.03947;
	267	 1	 426.69	 111.00	 0.0	 0.0	 1	    1.08377	  -21.01861	 225.0	 1	    1.08444	    1.00444;
	268	 1	 0.00	 0.00	 0.0	 0.0	 1	    1.09795	  -18.35023	 380.0	 1	    1.10263	    1.04211;
	269	 1	 0.00	 0.00	 0.0	 0.0	 1	    1.09797	  -18.34755	 380.0	 1	    1.10263	    1.04211;
	270	 2	 62.74	 16.70	 0.0	 0.0	 1	    1.06846	  -14.17137	 20.0	 1	    1.06846	    0.95000;
	271	 1	 0.00	 0.00	 0.0	 0.0	 1	    1.06190	  -11.71846	 225.0	 1	    1.08889	    0.98667;
	272	 1	 302.78	 112.70	 0.0	 0.0	 1	    1.05490	  -17.36108	 225.0	 1	    1.08889	    0.98667;
	273	 1	 387.23	 48.40	 0.0	 0.0	 1	    1.06599	  -26.41391	 380.0	 1	    1.10263	    1.04211;
	274	 1	 89.13	 48.90	 0.0	 0.0	 1	    1.04613	  -12.99969	 225.0	 1	    1.09611	    0.98667;
	275	 1	 7.56	 1.40	 0.0	 0.0	 1	    1.07138	  -21.70669	 225.0	 1	    1.08889	    1.00444;
	276	 1	 57.58	 8.00	 0.0	 0.0	 1	    1.04859	  -30.05842	 225.0	 1	    1.08889	    1.00444;
	277	 1	 -0.00	 -0.00	 0.0	 0.0	 1	    1.04875	  -29.97590	 225.0	 1	    1.08889	    1.00444;
	278	 1	 0.00	 0.00	 0.0	 0.0	 1	    1.08047	  -11.45788	 20.0	 1	    1.40000	    0.90000;
	279	 1	 53.98	 46.10	 0.0	 0.0	 1	    1.07484	  -10.54955	 225.0	 1	    1.08889	    0.93333;
	280	 1	 303.86	 26.30	 0.0	 0.0	 1	    1.09296	   -6.56520	 380.0	 1	    1.10526	    1.03947;
	281	 1	 0.00	 0.00	 0.0	 0.0	 1	    1.08687	   -1.01244	 225.0	 1	    1.08959	    1.00000;
	282	 1	 0.00	 0.00	 0.0	 0.0	 1	    1.08959	   -1.53308	 225.0	 1	    1.08959	    1.00000;
	283	 1	 0.00	 0.00	 0.0	 0.0	 1	    1.04556	   -6.06117	 150.0	 1	    1.08000	    0.96667;
	284	 1	 48.10	 2.40	 0.0	 0.0	 1	    1.06785	  -29.67369	 225.0	 1	    1.08889	    1.00444;
	285	 1	 132.07	 18.70	 0.0	 0.0	 1	    1.06047	  -28.40008	 225.0	 1	    1.08889	    1.00444;
	286	 1	 144.67	 18.10	 0.0	 0.0	 1	    1.06280	  -11.21377	 225.0	 1	    1.08889	    0.93333;
	287	 1	 43.07	 8.70	 0.0	 0.0	 1	    1.06682	  -24.38062	 225.0	 1	    1.08444	    1.00444;
	288	 1	 29.03	 6.80	 0.0	 0.0	 1	    1.06683	  -24.37932	 225.0	 1	    1.08444	    1.00444;
	289	 1	 90.21	 12.50	 0.0	 0.0	 1	    1.05995	  -27.02357	 225.0	 1	    1.08889	    1.00444;
	290	 1	 211.97	 47.60	 0.0	 0.0	 1	    1.06372	  -20.10168	 225.0	 1	    1.08889	    1.00444;
	291	 1	 0.00	 0.00	 0.0	 0.0	 1	    1.07506	  -18.99866	 380.0	 1	    1.10526	    1.04211;
	292	 1	 0.00	 0.00	 0.0	 0.0	 1	    1.07554	  -18.85791	 380.0	 1	    1.10526	    1.04211;
	293	 1	 0.00	 0.00	 0.0	 0.0	 1	    1.09255	  -16.14598	 380.0	 1	    1.10526	    1.04211;
	294	 1	 0.00	 0.00	 0.0	 0.0	 1	    1.07530	  -18.92827	 380.0	 1	    1.10526	    1.04211;
	295	 1	 380.99	 108.40	 0.0	 325.0	 1	    1.08404	  -40.41593	 225.0	 1	    1.08444	    1.00444;
	296	 1	 0.00	 0.00	 0.0	 0.0	 1	    1.07322	  -13.13004	 380.0	 1	    1.10526	    1.00000;
	297	 1	 76.17	 14.50	 0.0	 80.0	 1	    1.06886	  -29.98782	 225.0	 1	    1.08889	    1.00444;
	298	 1	 0.00	 0.00	 0.0	 0.0	 1	    1.04664	  -30.25427	 225.0	 1	    1.08889	    1.00444;
	299	 1	 0.00	 0.00	 0.0	 0.0	 1	    1.09534	   -6.35898	 380.0	 1	    1.10526	    1.03947;
	300	 1	 0.00	 0.00	 0.0	 0.0	 1	    1.07077	  -22.88957	 380.0	 1	    1.10263	    1.04211;
	301	 1	 0.00	 0.00	 0.0	 0.0	 1	    1.07055	  -22.88515	 380.0	 1	    1.10263	    1.04211;
	302	 1	 0.00	 0.00	 0.0	 0.0	 1	    1.07055	  -22.88578	 380.0	 1	    1.10263	    1.04211;
	303	 1	 411.10	 113.20	 0.0	 0.0	 1	    1.04065	  -39.63046	 225.0	 1	    1.08444	    1.00444;
	304	 1	 28.90	 -5.70	 0.0	 0.0	 1	    1.11618	   -1.62876	 380.0	 1	    1.11618	    1.00000;
	305	 1	 -21.40	 7.70	 0.0	 0.0	 1	    1.11703	   -1.87825	 380.0	 1	    1.11703	    1.00000;
	306	 1	 99.33	 19.70	 0.0	 0.0	 1	    1.08466	   -7.94165	 225.0	 1	    1.08889	    0.88889;
	307	 1	 0.00	 0.00	 0.0	 0.0	 1	    1.06356	  -26.21381	 225.0	 1	    1.08889	    1.00444;
	308	 1	 0.00	 0.00	 0.0	 0.0	 1	    1.07220	  -20.84105	 380.0	 1	    1.10526	    1.04211;
	309	 1	 88.40	 -29.10	 0.0	 0.0	 1	    1.07685	  -19.81622	 225.0	 1	    1.09445	    1.00000;
	310	 1	 -12.70	 -1.90	 0.0	 0.0	 1	    1.10191	  -14.60488	 380.0	 1	    1.10263	    1.04211;
	311	 1	 -27.90	 -8.50	 0.0	 0.0	 1	    1.10182	  -14.46180	 380.0	 1	    1.10263	    1.04211;
	312	 1	 1.00	 -8.10	 0.0	 0.0	 1	    1.05563	  -15.22201	 225.0	 1	    1.08895	    0.93333;
	313	 1	 169.38	 17.70	 0.0	 0.0	 1	    1.07085	  -21.97383	 225.0	 1	    1.08889	    1.00444;
	314	 1	 68.86	 17.50	 0.0	 0.0	 1	    1.04788	  -18.92883	 225.0	 1	    1.08889	    0.88889;
	315	 1	 54.94	 6.50	 0.0	 0.0	 1	    1.04824	  -18.91322	 225.0	 1	    1.08889	    0.88889;
	316	 1	 0.00	 0.00	 0.0	 0.0	 1	    1.09553	   -8.03586	 380.0	 1	    1.10526	    1.03947;
	317	 1	 231.64	 70.90	 0.0	 80.0	 1	    1.06302	  -17.36854	 225.0	 1	    1.08889	    1.00000;
	318	 1	 98.49	 17.50	 0.0	 0.0	 1	    1.04862	  -30.05104	 225.0	 1	    1.08889	    1.00444;
	319	 1	 14.99	 3.50	 0.0	 0.0	 1	    1.05445	   -6.58112	 150.0	 1	    1.10667	    0.90000;
	320	 1	 172.98	 2.10	 0.0	 0.0	 1	    1.03693	  -38.04094	 225.0	 1	    1.08576	    1.00444;
	321	 1	 20.20	 -5.00	 0.0	 0.0	 1	    1.06373	  -17.23214	 225.0	 1	    1.08889	    0.98667;
	323	 1	 172.26	 22.90	 0.0	 0.0	 1	    1.03865	  -25.77179	 225.0	 1	    1.08889	    1.00444;