%%%%%%%%%%%%%%%%%%%%%%%%%%%%%%%%%%%%%%%%%%%%%%%%%%%%%%%%%%%%%%%%%%%%%%%%%%%
%%%%                                                                  %%%%%
%%%%    IEEE PES Power Grid Library - Optimal Power Flow - v17.07     %%%%%
%%%%          (https://github.com/power-grid-lib/pglib-opf)           %%%%%
%%%%             Benchmark Group - Active Power Increase              %%%%%
%%%%                         27 - June - 2017                         %%%%%
%%%%                                                                  %%%%%
%%%%%%%%%%%%%%%%%%%%%%%%%%%%%%%%%%%%%%%%%%%%%%%%%%%%%%%%%%%%%%%%%%%%%%%%%%%
function mpc = pglib_opf_case6515_rte__api
mpc.version = '2';
mpc.baseMVA = 100.0;

%% bus data
%	bus_i	type	Pd	Qd	Gs	Bs	area	Vm	Va	baseKV	zone	Vmax	Vmin
mpc.bus = [
	1	 1	 0.00	 0.00	 0.0	 0.0	 1	    0.99536	  -22.18508	 45.0	 1	    1.00000	    0.88889;
	2	 1	 0.00	 0.00	 0.0	 0.0	 1	    1.04380	  -13.09666	 63.0	 1	    1.06349	    0.93651;
	3	 1	 17.27	 3.80	 0.0	 0.0	 1	    1.01011	  -29.65856	 63.0	 1	    1.07937	    0.95238;
	4	 1	 57.88	 2.80	 0.0	 0.0	 1	    1.06673	  -27.57606	 90.0	 1	    1.08889	    0.93333;
	5	 1	 15.05	 0.90	 0.0	 0.0	 1	    1.00725	  -62.51444	 63.0	 1	    1.06349	    0.95238;
	6	 1	 15.17	 5.30	 0.0	 0.0	 1	    1.03156	  -13.31699	 63.0	 1	    1.07937	    0.92063;
	7	 1	 2.68	 0.20	 0.0	 0.0	 1	    1.02679	  -10.43656	 63.0	 1	    1.07937	    0.92063;
	8	 1	 15.80	 -0.30	 0.0	 0.0	 1	    1.06814	  -25.23797	 225.0	 1	    1.08889	    0.88889;
	9	 1	 14.90	 0.00	 0.0	 0.0	 1	    1.03845	  -31.71753	 63.0	 1	    1.06349	    0.93651;
	10	 1	 0.00	 0.00	 0.0	 0.0	 1	    1.07778	  -17.04778	 90.0	 1	    1.07778	    0.92222;
	11	 1	 38.74	 4.90	 0.0	 0.0	 1	    1.07778	  -17.04778	 90.0	 1	    1.07778	    0.92222;
	12	 1	 0.00	 0.00	 0.0	 0.0	 1	    1.02222	  -22.14779	 63.0	 1	    1.07937	    0.95238;
	13	 1	 0.00	 0.00	 0.0	 0.0	 1	    1.08812	   -3.03093	 380.0	 1	    1.10263	    1.05271;
	14	 1	 73.75	 13.30	 0.0	 30.4	 1	    1.05804	  -44.18001	 90.0	 1	    1.07778	    0.97778;
	15	 1	 0.00	 0.00	 0.0	 0.0	 1	    1.03082	  -13.97063	 63.0	 1	    1.07937	    0.92063;
	16	 1	 16.22	 1.90	 0.0	 0.0	 1	    0.99703	  -16.53019	 63.0	 1	    1.07937	    0.92063;
	17	 1	 12.72	 0.10	 0.0	 0.0	 1	    1.03511	  -32.76198	 90.0	 1	    1.06667	    0.97778;
	18	 1	 0.00	 0.00	 0.0	 0.0	 1	    0.94235	  -17.02734	 45.0	 1	    1.00000	    0.88889;
	19	 1	 1.00	 0.00	 0.0	 0.0	 1	    1.00785	  -29.19385	 63.0	 1	    1.06349	    0.93651;
	20	 1	 5.60	 -18.00	 0.0	 0.0	 1	    0.94308	  -17.06630	 45.0	 1	    1.00000	    0.88889;
	21	 1	 7.60	 -1.60	 0.0	 0.0	 1	    1.02717	  -22.62610	 90.0	 1	    1.06667	    0.97778;
	22	 1	 21.59	 1.00	 0.0	 0.0	 1	    1.03166	  -26.31390	 63.0	 1	    1.07937	    0.95238;
	23	 1	 26.14	 2.20	 0.0	 0.0	 1	    1.03104	  -18.53958	 63.0	 1	    1.06349	    0.93651;
	24	 1	 17.00	 -1.50	 0.0	 0.0	 1	    1.07253	  -23.98727	 90.0	 1	    1.11111	    0.95556;
	25	 1	 54.70	 -1.10	 0.0	 0.0	 1	    1.09305	  -23.53113	 90.0	 1	    1.10000	    0.94444;
	26	 1	 17.62	 10.60	 0.0	 0.0	 1	    1.02729	  -31.03972	 90.0	 1	    1.06667	    0.97778;
	27	 1	 0.00	 0.00	 0.0	 0.0	 1	    1.06702	  -25.87643	 225.0	 1	    1.08444	    1.00444;
	28	 1	 0.90	 -0.20	 0.0	 0.0	 1	    1.04858	  -27.34545	 63.0	 1	    1.07937	    0.95238;
	29	 1	 89.27	 9.40	 0.0	 0.0	 1	    1.00073	  -14.72321	 63.0	 1	    1.06349	    0.96825;
	30	 1	 46.56	 3.50	 0.0	 0.0	 1	    1.08053	  -19.91878	 90.0	 1	    1.08889	    0.93333;
	31	 1	 0.00	 0.00	 0.0	 0.0	 1	    1.04541	  -15.58151	 63.0	 1	    1.06349	    0.93651;
	32	 1	 0.00	 0.00	 0.0	 0.0	 1	    1.05293	  -16.54698	 150.0	 1	    1.10667	    0.90000;
	33	 1	 0.00	 0.00	 0.0	 0.0	 1	    1.06291	  -16.37348	 225.0	 1	    1.08889	    0.93333;
	34	 1	 0.00	 0.00	 0.0	 0.0	 1	    1.06398	  -15.44743	 225.0	 1	    1.08889	    0.93333;
	35	 1	 0.00	 0.00	 0.0	 0.0	 1	    1.06190	  -15.05753	 380.0	 1	    1.10526	    1.03947;
	36	 1	 0.00	 0.00	 0.0	 0.0	 1	    1.04016	  -14.24793	 380.0	 1	    1.10526	    1.03947;
	37	 1	 -2.70	 3.00	 0.0	 0.0	 1	    1.01363	  -19.78451	 63.0	 1	    1.07937	    0.92063;
	38	 1	 5.00	 -1.00	 0.0	 0.0	 1	    1.05283	  -28.50391	 63.0	 1	    1.09524	    0.93651;
	39	 1	 43.60	 -2.90	 0.0	 0.0	 1	    1.01790	  -51.89942	 90.0	 1	    1.07778	    0.97778;
	40	 1	 44.46	 4.10	 0.0	 0.0	 1	    1.05008	  -42.08908	 90.0	 1	    1.07778	    0.97778;
	41	 1	 0.00	 0.00	 0.0	 0.0	 1	    1.07644	  -39.81592	 225.0	 1	    1.08889	    1.00444;
	42	 1	 0.00	 0.00	 0.0	 0.0	 1	    1.13050	  -17.91358	 63.0	 1	    1.13099	    0.95238;
	43	 1	 3.73	 2.70	 0.0	 0.0	 1	    1.04733	  -41.70871	 90.0	 1	    1.07778	    0.97778;
	44	 1	 15.52	 0.10	 0.0	 0.0	 1	    1.01750	  -57.70466	 63.0	 1	    1.06349	    0.95238;
	45	 1	 4.43	 1.60	 0.0	 0.0	 1	    1.02287	  -42.90718	 90.0	 1	    1.06667	    0.97778;
	46	 1	 0.00	 0.00	 0.0	 0.0	 1	    1.04748	  -12.83548	 63.0	 1	    1.06349	    0.93651;
	47	 2	 0.00	 0.00	 0.0	 0.0	 1	    1.06349	   -1.95101	 63.0	 1	    1.06349	    0.93651;
	48	 1	 47.14	 5.60	 0.0	 0.0	 1	    1.03991	  -32.30640	 90.0	 1	    1.07778	    0.92222;
	49	 1	 9.80	 -1.90	 0.0	 0.0	 1	    1.02447	  -19.37125	 63.0	 1	    1.06349	    0.93651;
	50	 1	 0.00	 0.00	 0.0	 0.0	 1	    1.06378	  -27.31521	 63.0	 1	    1.06927	    0.93651;
	51	 1	 0.00	 0.00	 0.0	 0.0	 1	    1.05337	  -21.77370	 225.0	 1	    1.08889	    0.93333;
	52	 1	 7.58	 2.90	 0.0	 0.0	 1	    1.04222	  -45.41467	 90.0	 1	    1.06667	    0.97778;
	53	 1	 0.00	 -1.30	 0.0	 0.0	 1	    0.99720	  -38.70682	 63.0	 1	    1.04762	    0.95238;
	54	 1	 0.30	 -0.30	 0.0	 0.0	 1	    1.03873	  -16.60366	 90.0	 1	    1.06667	    0.97778;
	55	 1	 59.40	 12.30	 0.0	 0.0	 1	    1.08789	  -42.99195	 225.0	 1	    1.08889	    1.00444;
	56	 1	 88.10	 20.50	 0.0	 0.0	 1	    1.08446	  -36.17364	 225.0	 1	    1.08889	    1.00444;
	57	 2	 0.00	 0.00	 0.0	 0.0	 1	    1.07427	   -2.41439	 63.0	 1	    1.07937	    0.92063;
	58	 1	 179.70	 36.40	 0.0	 0.0	 1	    1.08773	  -43.01131	 225.0	 1	    1.08889	    1.00444;
	59	 1	 5.83	 1.00	 0.0	 0.0	 1	    1.02519	  -29.17887	 63.0	 1	    1.07937	    0.95238;
	60	 1	 0.00	 0.00	 0.0	 0.0	 1	    1.04796	  -28.14197	 63.0	 1	    1.07937	    0.95238;
	61	 1	 54.03	 11.90	 0.0	 0.0	 1	    1.03344	  -28.28432	 63.0	 1	    1.07937	    0.95238;
	62	 1	 0.00	 0.00	 0.0	 0.0	 1	    1.03285	  -27.75866	 63.0	 1	    1.07937	    0.95238;
	63	 1	 19.60	 2.90	 0.0	 0.0	 1	    1.01867	  -22.16098	 63.0	 1	    1.07937	    0.95238;
	64	 1	 78.53	 7.10	 0.0	 0.0	 1	    1.08326	  -26.48449	 225.0	 1	    1.08889	    0.88889;
	65	 1	 14.00	 2.80	 0.0	 0.0	 1	    1.04416	  -29.37684	 63.0	 1	    1.07937	    0.95238;
	66	 1	 13.00	 -6.40	 0.0	 0.0	 1	    1.01021	  -31.63759	 63.0	 1	    1.06349	    0.93651;
	67	 1	 1.00	 0.00	 0.0	 0.0	 1	    1.04781	  -19.42378	 63.0	 1	    1.07937	    0.92063;
	68	 1	 61.96	 1.10	 0.0	 0.0	 1	    1.02182	  -21.20044	 63.0	 1	    1.06349	    0.93651;
	69	 1	 24.27	 1.30	 0.0	 0.0	 1	    1.03151	  -62.72201	 63.0	 1	    1.06349	    0.95238;
	70	 1	 12.37	 4.20	 0.0	 0.0	 1	    1.03472	  -20.59908	 63.0	 1	    1.07937	    0.95238;
	71	 1	 80.98	 17.50	 0.0	 0.0	 1	    1.04511	  -12.06558	 63.0	 1	    1.04762	    0.95238;
	72	 1	 0.00	 0.00	 0.0	 0.0	 1	    1.08889	  -35.25122	 225.0	 1	    1.08889	    1.00444;
	73	 1	 0.00	 0.00	 0.0	 0.0	 1	    1.08889	  -35.24668	 225.0	 1	    1.08889	    1.00444;
	74	 1	 58.80	 -5.00	 0.0	 0.0	 1	    1.08376	  -26.34914	 225.0	 1	    1.08889	    0.88889;
	75	 1	 29.41	 1.90	 0.0	 0.0	 1	    1.05507	  -34.02343	 90.0	 1	    1.06667	    0.97778;
	76	 1	 5.90	 -2.10	 0.0	 0.0	 1	    1.08452	  -18.55124	 225.0	 1	    1.08889	    0.98667;
	77	 1	 50.99	 0.40	 0.0	 0.0	 1	    1.02407	  -24.10072	 63.0	 1	    1.06349	    0.93651;
	78	 1	 0.00	 0.00	 0.0	 0.0	 1	    1.01702	  -12.91566	 63.0	 1	    1.07937	    0.92063;
	79	 1	 0.00	 0.00	 0.0	 0.0	 1	    1.03084	  -24.08114	 63.0	 1	    1.04762	    0.95238;
	80	 1	 37.81	 10.50	 0.0	 0.0	 1	    1.08703	  -34.65255	 225.0	 1	    1.08889	    1.00444;
	81	 1	 37.81	 9.10	 0.0	 0.0	 1	    1.08705	  -34.65246	 225.0	 1	    1.08889	    1.00444;
	82	 1	 13.19	 0.30	 0.0	 0.0	 1	    1.01847	  -19.06356	 63.0	 1	    1.06349	    0.93651;
	83	 1	 92.19	 24.80	 0.0	 0.0	 1	    1.06648	  -40.22588	 225.0	 1	    1.08889	    1.00444;
	84	 1	 -0.10	 0.40	 0.0	 0.0	 1	    1.05804	   -3.17664	 63.0	 1	    1.06349	    0.93651;
	85	 1	 0.70	 -1.50	 0.0	 0.0	 1	    1.02983	  -15.09503	 63.0	 1	    1.06349	    0.93651;
	86	 1	 56.94	 5.20	 0.0	 0.0	 1	    1.01732	  -51.97406	 90.0	 1	    1.06667	    0.97778;
	87	 1	 0.00	 0.00	 0.0	 0.0	 1	    1.02876	  -22.61555	 63.0	 1	    1.07937	    0.95238;
	88	 1	 14.80	 -1.20	 0.0	 0.0	 1	    1.02320	  -26.80088	 63.0	 1	    1.06349	    0.93651;
	89	 1	 30.57	 0.30	 0.0	 0.0	 1	    1.04234	  -44.33628	 90.0	 1	    1.07778	    0.97778;
	90	 1	 0.20	 -2.30	 0.0	 0.0	 1	    0.94842	  -17.51390	 45.0	 1	    1.00000	    0.88889;
	91	 1	 0.00	 0.00	 0.0	 0.0	 1	    0.94235	  -17.02734	 45.0	 1	    1.00000	    0.88889;
	92	 1	 37.11	 1.10	 0.0	 0.0	 1	    1.02831	  -15.24300	 63.0	 1	    1.06349	    0.96825;
	93	 1	 2.00	 -2.80	 0.0	 0.0	 1	    0.96412	  -15.43165	 45.0	 1	    1.00000	    0.88889;
	94	 1	 18.20	 -4.00	 0.0	 0.0	 1	    1.02997	  -29.43379	 90.0	 1	    1.06667	    0.97778;
	95	 1	 66.75	 9.40	 0.0	 0.0	 1	    1.02305	  -44.85546	 90.0	 1	    1.06667	    0.97778;
	96	 1	 0.90	 -0.20	 0.0	 0.0	 1	    1.05910	  -19.22020	 63.0	 1	    1.06349	    0.93651;
	97	 1	 67.33	 3.80	 0.0	 0.0	 1	    1.06149	  -21.00064	 63.0	 1	    1.07937	    0.92063;
	98	 1	 11.09	 1.00	 0.0	 0.0	 1	    1.03637	  -29.74212	 63.0	 1	    1.07937	    0.95238;
	99	 1	 41.78	 5.90	 0.0	 0.0	 1	    1.03955	  -28.26887	 63.0	 1	    1.07937	    0.95238;
	100	 1	 73.52	 7.80	 0.0	 0.0	 1	    1.01515	  -28.27528	 63.0	 1	    1.06349	    0.93651;
	101	 1	 17.30	 -0.80	 0.0	 0.0	 1	    1.03978	   -6.45951	 63.0	 1	    1.06349	    0.93651;
	102	 2	 0.00	 0.00	 0.0	 0.0	 1	    1.06769	    1.28919	 63.0	 1	    1.07937	    0.95238;
	103	 1	 12.60	 -1.20	 0.0	 0.0	 1	    1.03072	  -24.55264	 63.0	 1	    1.07937	    0.95238;
	104	 1	 0.00	 0.00	 0.0	 0.0	 1	    1.07272	  -22.83651	 225.0	 1	    1.08889	    0.98667;
	105	 1	 43.06	 2.20	 0.0	 0.0	 1	    1.05892	  -26.93010	 225.0	 1	    1.08889	    0.88889;
	106	 1	 67.91	 10.70	 0.0	 0.0	 1	    1.07053	  -33.35466	 90.0	 1	    1.10000	    0.94444;
	107	 1	 124.86	 14.30	 0.0	 0.0	 1	    1.05355	  -20.69536	 225.0	 1	    1.08444	    1.00889;
	108	 1	 12.20	 -2.40	 0.0	 0.0	 1	    1.05661	  -39.69543	 90.0	 1	    1.07778	    0.97778;
	109	 1	 79.12	 8.70	 0.0	 0.0	 1	    1.05131	  -14.84571	 63.0	 1	    1.06349	    0.93651;
	110	 1	 0.00	 0.00	 0.0	 0.0	 1	    1.04404	  -14.68867	 225.0	 1	    1.08889	    0.93333;
	111	 1	 38.70	 -7.50	 0.0	 0.0	 1	    1.02131	   -9.34276	 63.0	 1	    1.06349	    0.96825;
	112	 1	 0.00	 0.00	 0.0	 0.0	 1	    1.02247	  -41.52386	 63.0	 1	    1.04762	    0.95238;
	113	 1	 0.00	 0.00	 0.0	 0.0	 1	    1.05835	  -37.38219	 225.0	 1	    1.08889	    1.00444;
	114	 1	 15.64	 1.10	 0.0	 0.0	 1	    1.05250	  -24.44535	 63.0	 1	    1.06349	    0.93651;
	115	 1	 0.00	 0.00	 0.0	 0.0	 1	    1.08813	   -3.03101	 380.0	 1	    1.10526	    1.05263;
	116	 1	 0.00	 0.00	 0.0	 0.0	 1	    1.08813	   -3.03101	 380.0	 1	    1.10526	    1.05263;
	117	 1	 17.39	 0.20	 0.0	 0.0	 1	    1.03342	  -28.43517	 63.0	 1	    1.07937	    0.95238;
	118	 1	 2.33	 0.70	 0.0	 0.0	 1	    1.05779	  -33.66783	 90.0	 1	    1.06667	    0.97778;
	119	 1	 47.38	 6.90	 0.0	 0.0	 1	    1.01366	  -18.71943	 63.0	 1	    1.06349	    0.93651;
	120	 1	 22.00	 -2.30	 0.0	 0.0	 1	    1.04413	  -19.60456	 63.0	 1	    1.06349	    0.93651;
	121	 1	 24.27	 1.40	 0.0	 0.0	 1	    1.01435	  -25.28037	 63.0	 1	    1.07937	    0.92063;
	122	 2	 0.00	 0.00	 0.0	 0.0	 1	    1.07937	   -8.88359	 63.0	 1	    1.07937	    0.95238;
	123	 1	 14.00	 4.60	 0.0	 0.0	 1	    1.05255	  -11.89290	 63.0	 1	    1.07937	    0.95238;
	124	 1	 8.00	 -0.40	 0.0	 0.0	 1	    1.03056	  -30.41248	 90.0	 1	    1.06667	    0.97778;
	125	 1	 12.95	 0.40	 0.0	 0.0	 1	    1.07594	  -19.16449	 63.0	 1	    1.07937	    0.95238;
	126	 1	 0.23	 0.80	 0.0	 0.0	 1	    1.03464	  -14.60909	 63.0	 1	    1.06349	    0.93651;
	127	 1	 17.15	 2.70	 0.0	 0.0	 1	    1.00055	  -17.54310	 63.0	 1	    1.04762	    0.95238;
	128	 1	 16.10	 7.20	 0.0	 0.0	 1	    1.04927	   -2.71277	 63.0	 1	    1.06349	    0.96825;
	129	 1	 22.29	 10.80	 0.0	 0.0	 1	    1.05543	    4.06793	 63.0	 1	    1.06349	    0.96825;
	130	 1	 0.00	 0.00	 0.0	 0.0	 1	    1.08061	   -4.68993	 225.0	 1	    1.08444	    1.00889;
	131	 1	 139.21	 12.00	 0.0	 0.0	 1	    1.07745	  -12.33542	 225.0	 1	    1.08444	    1.00889;
	132	 2	 9.40	 0.00	 0.0	 0.0	 1	    1.07278	   -9.52367	 90.0	 1	    1.07778	    0.92222;
	133	 1	 3.15	 0.40	 0.0	 0.0	 1	    0.99400	  -42.08662	 63.0	 1	    1.04762	    0.95238;
	134	 1	 117.97	 27.40	 0.0	 0.0	 1	    1.03735	  -38.32411	 225.0	 1	    1.08889	    1.00444;
	135	 1	 0.00	 0.00	 0.0	 0.0	 1	    1.08886	  -42.79296	 225.0	 1	    1.08889	    1.00444;
	136	 1	 27.89	 1.40	 0.0	 0.0	 1	    1.03170	  -52.06978	 90.0	 1	    1.07778	    0.97778;
	137	 2	 8.70	 -3.00	 0.0	 0.0	 1	    1.02928	  -13.85398	 63.0	 1	    1.06349	    0.96825;
	138	 1	 0.00	 0.00	 0.0	 0.0	 1	    1.06566	  -13.62181	 150.0	 1	    1.08000	    0.96667;
	139	 1	 9.34	 7.10	 0.0	 0.0	 1	    1.05671	  -14.93972	 63.0	 1	    1.07937	    0.92063;
	140	 1	 0.00	 0.00	 0.0	 80.0	 1	    1.08889	  -11.23267	 225.0	 1	    1.08889	    1.00000;
	141	 1	 0.00	 0.00	 0.0	 0.0	 1	    1.10237	   -7.96882	 380.0	 1	    1.10526	    1.05263;
	142	 1	 26.14	 7.40	 0.0	 0.0	 1	    1.02981	  -28.60531	 63.0	 1	    1.07937	    0.95238;
	143	 1	 0.00	 0.00	 0.0	 0.0	 1	    1.06438	  -23.99973	 225.0	 1	    1.08889	    0.98667;
	144	 1	 18.67	 5.00	 0.0	 0.0	 1	    1.10569	  -17.61174	 90.0	 1	    1.11111	    0.95556;
	145	 1	 27.31	 9.00	 0.0	 0.0	 1	    1.08518	  -26.14557	 225.0	 1	    1.08889	    0.96889;
	146	 1	 0.00	 0.00	 0.0	 0.0	 1	    1.09502	  -24.79455	 380.0	 1	    1.10526	    1.00000;
	147	 1	 35.01	 5.50	 0.0	 0.0	 1	    1.03009	  -24.69897	 63.0	 1	    1.06349	    0.93651;
	148	 1	 7.70	 1.20	 0.0	 0.0	 1	    1.04801	  -19.75659	 63.0	 1	    1.06349	    0.93651;
	149	 1	 19.72	 4.10	 0.0	 0.0	 1	    1.04464	  -44.55651	 90.0	 1	    1.06667	    0.97778;
	150	 1	 56.59	 3.20	 0.0	 0.0	 1	    1.04291	  -16.14882	 63.0	 1	    1.06349	    0.93651;
	151	 1	 0.00	 0.00	 0.0	 0.0	 1	    0.99703	  -17.22597	 63.0	 1	    1.06349	    0.96825;
	152	 1	 52.86	 12.00	 0.0	 7.7	 1	    0.99716	  -16.01785	 63.0	 1	    1.06349	    0.96825;
	153	 1	 27.30	 -5.50	 0.0	 0.0	 1	    1.04520	  -21.66163	 63.0	 1	    1.06349	    0.93651;
	154	 1	 0.00	 0.00	 0.0	 0.0	 1	    1.07291	  -17.53509	 225.0	 1	    1.08889	    0.93333;
	155	 2	 0.00	 0.00	 0.0	 0.0	 1	    1.04897	   -3.52703	 63.0	 1	    1.07937	    0.92063;
	156	 1	 0.00	 0.00	 0.0	 0.0	 1	    0.99697	  -17.23704	 63.0	 1	    1.06349	    0.96825;
	157	 1	 0.00	 -2.20	 0.0	 0.0	 1	    0.94006	  -12.33577	 45.0	 1	    1.00000	    0.88889;
	158	 2	 0.00	 0.00	 0.0	 0.0	 1	    0.96809	  -18.80052	 45.0	 1	    1.00000	    0.88889;
	159	 1	 0.00	 0.00	 0.0	 0.0	 1	    1.04860	  -15.77380	 63.0	 1	    1.06349	    0.93651;
	160	 1	 48.66	 5.90	 0.0	 0.0	 1	    1.06698	  -25.52246	 225.0	 1	    1.08889	    0.88889;
	161	 1	 50.99	 10.00	 0.0	 0.0	 1	    1.06679	  -25.52703	 225.0	 1	    1.08889	    0.88889;
	162	 1	 -0.30	 -1.60	 0.0	 0.0	 1	    1.00910	  -26.05345	 90.0	 1	    1.06667	    0.97778;
	163	 1	 0.00	 0.00	 0.0	 0.0	 1	    1.04728	  -28.28324	 63.0	 1	    1.07937	    0.95238;
	164	 1	 0.00	 0.00	 0.0	 0.0	 1	    1.04728	  -28.28324	 63.0	 1	    1.07937	    0.95238;
	165	 1	 19.25	 14.60	 0.0	 0.0	 1	    1.06992	  -39.13635	 20.0	 1	    1.15000	    0.80000;
	166	 1	 15.52	 3.20	 0.0	 0.0	 1	    1.05089	  -44.08334	 90.0	 1	    1.06667	    0.97778;
	167	 1	 17.80	 -0.80	 0.0	 0.0	 1	    1.03880	  -44.55724	 90.0	 1	    1.06667	    0.97778;
	168	 1	 0.00	 0.00	 0.0	 0.0	 1	    1.07005	  -39.12887	 225.0	 1	    1.08444	    1.00444;
	169	 1	 9.90	 -0.90	 0.0	 0.0	 1	    1.01960	  -33.31919	 90.0	 1	    1.06667	    0.97778;
	170	 1	 93.12	 13.50	 0.0	 0.0	 1	    1.03777	  -44.09366	 90.0	 1	    1.07778	    0.97778;
	171	 1	 32.67	 0.80	 0.0	 30.0	 1	    1.06049	  -47.53549	 90.0	 1	    1.07778	    0.97778;
	172	 1	 0.00	 0.00	 0.0	 0.0	 1	    1.06742	  -42.68883	 225.0	 1	    1.08889	    1.00444;
	173	 1	 33.26	 8.00	 0.0	 0.0	 1	    1.08353	  -25.78420	 90.0	 1	    1.08889	    0.93333;
	174	 1	 69.66	 11.60	 0.0	 0.0	 1	    1.07513	  -32.55133	 90.0	 1	    1.11111	    0.95556;
	175	 1	 0.00	 0.00	 0.0	 0.0	 1	    1.03618	    2.67902	 63.0	 1	    1.07937	    0.92063;
	176	 2	 0.00	 0.00	 0.0	 0.0	 1	    1.09701	    1.64300	 150.0	 1	    1.10000	    0.90000;
	177	 1	 0.00	 0.00	 0.0	 0.0	 1	    1.07521	  -31.61954	 225.0	 1	    1.08889	    1.00444;
	178	 1	 0.00	 0.00	 0.0	 0.0	 1	    1.07521	  -31.61954	 225.0	 1	    1.08889	    1.00444;
	179	 1	 0.00	 0.00	 0.0	 0.0	 1	    1.00078	  -17.52599	 63.0	 1	    1.04762	    0.95238;
	180	 1	 0.00	 0.00	 0.0	 0.0	 1	    1.07521	  -31.61953	 225.0	 1	    1.08889	    1.00444;
	181	 1	 12.70	 -5.30	 0.0	 0.0	 1	    1.04705	  -19.29215	 63.0	 1	    1.07937	    0.92063;
	182	 1	 18.67	 3.10	 0.0	 0.0	 1	    1.04511	  -16.53007	 63.0	 1	    1.06349	    0.93651;
	183	 1	 5.50	 -1.70	 0.0	 0.0	 1	    1.04910	  -25.96486	 63.0	 1	    1.07937	    0.95238;
	184	 1	 5.83	 1.40	 0.0	 0.0	 1	    1.06713	  -37.67144	 90.0	 1	    1.07778	    0.97778;
	185	 1	 35.71	 2.70	 0.0	 0.0	 1	    1.01948	  -29.62412	 63.0	 1	    1.07937	    0.95238;
	186	 1	 1.40	 0.20	 0.0	 0.0	 1	    1.01561	  -25.54576	 90.0	 1	    1.06667	    0.97778;
	187	 2	 0.00	 0.00	 0.0	 0.0	 1	    1.03763	   -4.14906	 63.0	 1	    1.07937	    0.92063;
	188	 1	 0.00	 0.00	 0.0	 0.0	 1	    1.07385	    3.61094	 63.0	 1	    1.09875	    0.92063;
	189	 1	 19.60	 1.80	 0.0	 0.0	 1	    1.02207	    0.35116	 63.0	 1	    1.07937	    0.92063;
	190	 2	 0.00	 0.00	 0.0	 0.0	 1	    0.96455	  -17.50212	 45.0	 1	    1.00000	    0.88889;
	191	 1	 15.40	 -1.10	 0.0	 0.0	 1	    1.01892	  -33.03106	 90.0	 1	    1.06667	    0.97778;
	192	 1	 9.90	 -0.00	 0.0	 0.0	 1	    1.07937	    0.33511	 63.0	 1	    1.07937	    0.92063;
	193	 1	 0.12	 0.70	 0.0	 0.0	 1	    1.05838	  -38.00269	 225.0	 1	    1.08889	    1.00444;
	194	 2	 0.70	 -1.60	 0.0	 0.0	 1	    1.07049	    5.04925	 63.0	 1	    1.07937	    0.92063;
	195	 1	 0.00	 0.00	 0.0	 0.0	 1	    1.06362	  -38.42926	 63.0	 1	    1.06362	    0.95238;
	196	 1	 0.00	 0.00	 0.0	 0.0	 1	    1.06362	  -38.42930	 63.0	 1	    1.06362	    0.95238;
	197	 1	 27.50	 -0.60	 0.0	 15.0	 1	    1.00726	   -9.64891	 63.0	 1	    1.07937	    0.92063;
	198	 1	 11.10	 -0.80	 0.0	 0.0	 1	    1.00449	  -19.37330	 63.0	 1	    1.07937	    0.92063;
	199	 1	 14.70	 2.70	 0.0	 0.0	 1	    1.01405	  -52.48172	 90.0	 1	    1.06667	    0.97778;
	200	 1	 0.00	 0.00	 0.0	 0.0	 1	    1.07325	  -13.34400	 225.0	 1	    1.08889	    1.00000;
	201	 1	 94.52	 25.60	 0.0	 0.0	 1	    1.05534	  -27.39852	 225.0	 1	    1.08889	    0.88889;
	202	 1	 58.11	 2.00	 0.0	 0.0	 1	    1.00951	  -25.96138	 63.0	 1	    1.06349	    0.96825;
	203	 1	 33.37	 3.70	 0.0	 0.0	 1	    1.08372	  -19.91592	 90.0	 1	    1.10000	    0.94444;
	204	 1	 0.00	 0.00	 0.0	 0.0	 1	    1.08725	  -21.86074	 225.0	 1	    1.08889	    0.96889;
	205	 1	 0.00	 0.00	 0.0	 0.0	 1	    1.10121	  -19.76804	 380.0	 1	    1.10526	    1.00000;
	206	 1	 63.48	 9.90	 0.0	 0.0	 1	    1.02281	  -22.88818	 63.0	 1	    1.06349	    0.96825;
	207	 1	 39.56	 4.50	 0.0	 0.0	 1	    1.01473	   -3.67884	 63.0	 1	    1.06349	    0.96825;
	208	 1	 16.60	 -0.80	 0.0	 0.0	 1	    1.04263	  -39.70946	 90.0	 1	    1.07778	    0.97778;
	209	 1	 2.57	 1.10	 0.0	 0.0	 1	    1.04235	  -12.94932	 63.0	 1	    1.06349	    0.96825;
	210	 1	 48.43	 6.30	 0.0	 0.0	 1	    1.02720	   -9.79710	 63.0	 1	    1.06349	    0.96825;
	211	 1	 37.92	 14.00	 0.0	 0.0	 1	    1.02714	   -9.64444	 63.0	 1	    1.06349	    0.96825;
	212	 1	 0.00	 0.00	 0.0	 0.0	 1	    1.07308	   -9.56934	 225.0	 1	    1.08444	    1.00889;
	213	 1	 0.00	 0.00	 0.0	 0.0	 1	    1.07298	   -9.55584	 225.0	 1	    1.08444	    1.00889;
	214	 1	 50.29	 4.50	 0.0	 30.4	 1	    1.05556	  -47.86865	 90.0	 1	    1.07778	    0.97778;
	215	 1	 0.00	 0.00	 0.0	 0.0	 1	    1.05965	  -43.30403	 225.0	 1	    1.08889	    1.00444;
	216	 1	 21.10	 -3.50	 0.0	 0.0	 1	    1.01340	  -29.94914	 63.0	 1	    1.06349	    0.95238;
	217	 1	 36.29	 2.70	 0.0	 0.0	 1	    1.00892	  -38.21711	 90.0	 1	    1.06667	    0.97778;
	218	 1	 3.30	 -0.40	 0.0	 0.0	 1	    1.03856	  -16.59527	 90.0	 1	    1.06667	    0.97778;
	219	 1	 11.10	 -4.90	 0.0	 0.0	 1	    1.04492	  -29.57784	 90.0	 1	    1.06667	    0.97778;
	220	 1	 17.27	 3.50	 0.0	 0.0	 1	    1.03250	  -21.70844	 63.0	 1	    1.07937	    0.95238;
	221	 1	 13.00	 -6.80	 0.0	 0.0	 1	    1.02737	  -21.44014	 63.0	 1	    1.06349	    0.93651;
	222	 1	 0.00	 0.00	 0.0	 0.0	 1	    1.07646	  -16.91092	 225.0	 1	    1.08975	    0.93333;
	223	 1	 49.48	 2.20	 0.0	 0.0	 1	    1.01847	  -17.93824	 63.0	 1	    1.07937	    0.92063;
	224	 2	 0.00	 0.00	 0.0	 0.0	 1	    1.09696	    1.64397	 150.0	 1	    1.10000	    0.90000;
	225	 1	 89.62	 16.60	 0.0	 0.0	 1	    1.08026	   -9.53101	 225.0	 1	    1.08444	    1.00889;
	226	 1	 90.79	 71.50	 0.0	 0.0	 1	    1.07940	   -9.52351	 225.0	 1	    1.08444	    1.00889;
	227	 1	 5.00	 -1.90	 0.0	 0.0	 1	    0.99878	  -65.70723	 63.0	 1	    1.06349	    0.95238;
	228	 1	 10.90	 -2.00	 0.0	 0.0	 1	    0.99464	  -66.25952	 63.0	 1	    1.06349	    0.95238;
	229	 1	 12.00	 -5.00	 0.0	 0.0	 1	    1.05663	  -15.00542	 63.0	 1	    1.07937	    0.92063;
	230	 1	 0.00	 0.00	 0.0	 0.0	 1	    1.08117	  -10.02149	 225.0	 1	    1.08889	    0.97778;
	231	 1	 7.00	 -1.40	 0.0	 0.0	 1	    1.03404	  -32.39959	 90.0	 1	    1.06667	    0.97778;
	232	 1	 8.40	 0.10	 0.0	 0.0	 1	    1.08655	  -18.79592	 90.0	 1	    1.08889	    0.93333;
	233	 1	 0.00	 0.00	 0.0	 0.0	 1	    1.05914	  -27.14824	 20.0	 1	    1.15000	    0.80000;
	234	 1	 28.82	 8.10	 0.0	 0.0	 1	    1.05914	  -27.14824	 90.0	 1	    1.08889	    0.93333;
	235	 1	 20.65	 3.30	 0.0	 0.0	 1	    1.06851	  -22.86443	 225.0	 1	    1.08889	    0.88889;
	236	 1	 33.37	 1.00	 0.0	 0.0	 1	    1.05773	  -30.53138	 90.0	 1	    1.07778	    0.92222;
	237	 1	 50.99	 5.20	 0.0	 0.0	 1	    1.04508	  -22.13211	 63.0	 1	    1.06349	    0.93651;
	238	 1	 25.20	 -1.70	 0.0	 0.0	 1	    1.00211	  -33.73423	 90.0	 1	    1.06667	    0.97778;
	239	 1	 62.90	 4.30	 0.0	 0.0	 1	    1.01358	  -67.11532	 63.0	 1	    1.06349	    0.95238;
	240	 1	 59.63	 9.50	 0.0	 0.0	 1	    1.01709	  -12.91099	 63.0	 1	    1.07937	    0.92063;
	241	 1	 66.16	 9.40	 0.0	 0.0	 1	    1.01500	  -24.69660	 90.0	 1	    1.07778	    0.92222;
	242	 1	 65.58	 8.60	 0.0	 0.0	 1	    1.00837	  -21.14488	 63.0	 1	    1.06349	    0.96825;
	243	 1	 26.70	 -2.30	 0.0	 0.0	 1	    0.99283	  -17.91186	 63.0	 1	    1.07937	    0.92063;
	244	 1	 67.68	 3.70	 0.0	 0.0	 1	    1.04855	  -11.31298	 90.0	 1	    1.07778	    0.92222;
	245	 1	 13.70	 -2.20	 0.0	 0.0	 1	    1.03348	  -25.13033	 63.0	 1	    1.07937	    0.92063;
	246	 2	 15.99	 7.50	 0.0	 0.0	 1	    1.02836	  -15.74860	 63.0	 1	    1.06349	    0.93651;
	247	 1	 0.00	 0.00	 0.0	 0.0	 1	    1.05984	  -13.66513	 225.0	 1	    1.08889	    0.93333;
	248	 1	 38.97	 13.10	 0.0	 0.0	 1	    1.08313	  -36.46621	 225.0	 1	    1.08889	    1.00444;
	249	 1	 30.46	 0.90	 0.0	 0.0	 1	    1.00713	  -19.36122	 63.0	 1	    1.07937	    0.92063;
	250	 1	 27.40	 -9.40	 0.0	 0.0	 1	    1.02479	  -29.14630	 63.0	 1	    1.07937	    0.95238;
	251	 1	 12.37	 3.50	 0.0	 0.0	 1	    1.03170	  -43.03816	 90.0	 1	    1.06667	    0.97778;
	252	 1	 9.60	 -1.80	 0.0	 0.0	 1	    1.01483	  -26.97326	 90.0	 1	    1.06667	    0.97778;
	253	 1	 63.13	 5.30	 0.0	 0.0	 1	    1.04285	  -30.89855	 63.0	 1	    1.07937	    0.95238;
	254	 1	 23.34	 1.90	 0.0	 0.0	 1	    1.05616	  -27.11436	 63.0	 1	    1.07937	    0.95238;
	255	 1	 9.50	 -0.20	 0.0	 0.0	 1	    1.01015	  -25.23408	 63.0	 1	    1.06349	    0.93651;
	256	 2	 1.80	 0.00	 0.0	 0.0	 1	    1.05294	   -7.30586	 63.0	 1	    1.07937	    0.92063;
	257	 1	 0.00	 0.00	 0.0	 0.0	 1	    1.07427	  -12.67126	 225.0	 1	    1.08889	    1.00000;
	258	 2	 -0.00	 0.00	 0.0	 0.0	 1	    1.06384	  -10.24578	 90.0	 1	    1.07778	    0.92222;
	259	 1	 33.00	 -2.20	 0.0	 0.0	 1	    1.05066	  -29.03899	 63.0	 1	    1.07937	    0.95238;
	260	 1	 0.00	 0.00	 0.0	 0.0	 1	    1.08063	  -26.84509	 225.0	 1	    1.08889	    0.98667;
	261	 2	 0.00	 0.00	 0.0	 0.0	 1	    1.03417	   -7.88548	 63.0	 1	    1.07937	    0.92063;
	262	 1	 0.00	 0.00	 0.0	 80.0	 1	    1.07597	  -25.62361	 225.0	 1	    1.08889	    0.88889;
	263	 1	 0.00	 0.00	 0.0	 0.0	 1	    1.06142	  -26.38439	 225.0	 1	    1.08889	    0.88889;
	264	 1	 0.00	 0.00	 0.0	 0.0	 1	    1.07887	  -22.23888	 380.0	 1	    1.10526	    1.01316;
	265	 1	 0.00	 0.00	 0.0	 0.0	 1	    0.99055	  -39.72776	 63.0	 1	    1.04762	    0.95238;
	266	 1	 37.92	 7.60	 0.0	 0.0	 1	    1.06782	  -33.75362	 225.0	 1	    1.08889	    1.00444;
	267	 1	 77.37	 12.70	 0.0	 0.0	 1	    1.08447	  -35.09636	 225.0	 1	    1.08889	    1.00444;
	268	 1	 14.24	 10.90	 0.0	 0.0	 1	    1.01653	  -14.25186	 63.0	 1	    1.07937	    0.92063;
	269	 1	 27.07	 1.10	 0.0	 0.0	 1	    1.01952	  -25.41837	 63.0	 1	    1.07937	    0.92063;
	270	 1	 0.00	 0.00	 0.0	 0.0	 1	    1.08074	   -5.47421	 225.0	 1	    1.08889	    0.97778;
	271	 1	 0.00	 0.00	 0.0	 0.0	 1	    1.08076	   -5.43467	 225.0	 1	    1.08889	    0.97778;
	272	 1	 53.44	 4.30	 0.0	 0.0	 1	    1.04761	   -8.44572	 63.0	 1	    1.06349	    0.96825;
	273	 1	 33.26	 3.50	 0.0	 0.0	 1	    1.07696	   -6.24046	 225.0	 1	    1.08444	    1.00889;
	274	 1	 63.60	 9.10	 0.0	 0.0	 1	    1.07597	  -32.39293	 90.0	 1	    1.10000	    0.94444;
	275	 1	 0.00	 0.00	 0.0	 0.0	 1	    1.07931	  -32.90894	 225.0	 1	    1.08444	    1.00444;
	276	 1	 0.00	 0.00	 0.0	 0.0	 1	    1.10234	  -26.16466	 380.0	 1	    1.10263	    1.04211;
	277	 1	 4.32	 2.30	 0.0	 0.0	 1	    1.04825	  -36.14093	 90.0	 1	    1.06667	    0.97778;
	278	 1	 1.75	 4.60	 0.0	 0.0	 1	    1.07892	  -32.97530	 225.0	 1	    1.08444	    1.00444;
	279	 1	 11.00	 -2.10	 0.0	 0.0	 1	    1.01556	  -35.33786	 63.0	 1	    1.06349	    0.93651;
	280	 1	 51.34	 14.30	 0.0	 0.0	 1	    1.03626	  -45.64300	 90.0	 1	    1.07778	    0.97778;
	281	 1	 14.94	 0.90	 0.0	 0.0	 1	    1.04457	  -23.02642	 63.0	 1	    1.07937	    0.95238;
	282	 2	 0.00	 0.00	 0.0	 0.0	 1	    1.02836	  -15.74861	 63.0	 1	    1.06349	    0.93651;
	283	 1	 12.10	 -0.20	 0.0	 0.0	 1	    1.02172	  -45.14214	 90.0	 1	    1.06667	    0.97778;
	284	 1	 19.60	 4.60	 0.0	 0.0	 1	    1.02315	  -20.18588	 63.0	 1	    1.07937	    0.95238;
	285	 1	 -1.70	 4.60	 0.0	 0.0	 1	    1.08549	  -35.97527	 225.0	 1	    1.08889	    1.00444;
	286	 1	 37.57	 20.50	 0.0	 0.0	 1	    1.08530	  -35.99250	 225.0	 1	    1.08889	    1.00444;
	287	 1	 35.70	 -2.30	 0.0	 0.0	 1	    1.02915	  -32.03442	 90.0	 1	    1.06667	    0.97778;
	288	 1	 36.80	 -2.80	 0.0	 0.0	 1	    1.03772	  -34.88207	 90.0	 1	    1.06667	    0.97778;
	289	 1	 50.88	 9.70	 0.0	 0.0	 1	    1.08364	  -17.65313	 225.0	 1	    1.08889	    0.88889;
	290	 1	 8.52	 3.70	 0.0	 0.0	 1	    1.08624	  -27.48723	 90.0	 1	    1.11111	    0.95556;
	291	 1	 18.44	 0.30	 0.0	 0.0	 1	    1.00491	  -17.77834	 63.0	 1	    1.07937	    0.92063;
	292	 1	 1.17	 0.50	 0.0	 0.0	 1	    1.03790	  -21.14902	 63.0	 1	    1.06349	    0.93651;
	293	 1	 52.98	 2.30	 0.0	 0.0	 1	    1.03796	  -21.14518	 63.0	 1	    1.06349	    0.93651;
	294	 1	 0.00	 -0.90	 0.0	 0.0	 1	    1.02777	  -26.40716	 63.0	 1	    1.07937	    0.95238;
	295	 1	 27.31	 4.50	 0.0	 0.0	 1	    1.06780	  -27.10950	 225.0	 1	    1.08889	    0.88889;
	296	 1	 8.05	 0.30	 0.0	 0.0	 1	    1.03993	  -21.59397	 63.0	 1	    1.07937	    0.95238;
	297	 1	 2.00	 -0.50	 0.0	 0.0	 1	    0.99628	  -24.61183	 63.0	 1	    1.06349	    0.93651;
	298	 1	 13.90	 -0.00	 0.0	 0.0	 1	    1.01954	  -11.96469	 63.0	 1	    1.06349	    0.93651;
	299	 1	 0.00	 0.10	 0.0	 0.0	 1	    1.07515	  -22.72565	 90.0	 1	    1.11111	    0.95556;
	300	 1	 62.43	 16.60	 0.0	 0.0	 1	    1.08086	  -21.18595	 225.0	 1	    1.08889	    0.88889;
	301	 1	 3.50	 0.30	 0.0	 0.0	 1	    1.01958	   -6.75697	 63.0	 1	    1.06349	    0.96825;
	302	 1	 19.02	 3.50	 0.0	 0.0	 1	    1.03946	  -18.65189	 63.0	 1	    1.06349	    0.93651;
	303	 1	 49.36	 12.00	 0.0	 0.0	 1	    0.97419	  -12.98538	 63.0	 1	    1.07937	    0.92063;
	304	 1	 36.70	 -0.50	 0.0	 0.0	 1	    1.02467	  -22.01288	 63.0	 1	    1.06349	    0.96825;
	305	 2	 0.00	 0.00	 0.0	 0.0	 1	    1.05584	  -19.28509	 63.0	 1	    1.06349	    0.93651;
	306	 1	 14.50	 -1.10	 0.0	 0.0	 1	    1.03778	  -25.28260	 63.0	 1	    1.07937	    0.95238;
	307	 1	 21.40	 -2.40	 0.0	 0.0	 1	    0.99653	  -53.27983	 90.0	 1	    1.06667	    0.97778;
	308	 1	 0.70	 0.20	 0.0	 0.0	 1	    1.02532	  -11.58776	 63.0	 1	    1.07937	    0.92063;
	309	 1	 8.17	 2.50	 0.0	 0.0	 1	    1.05575	  -25.24605	 63.0	 1	    1.06349	    0.96825;
	310	 1	 15.17	 4.50	 0.0	 0.0	 1	    1.05595	  -25.27848	 63.0	 1	    1.06349	    0.96825;
	311	 1	 1.30	 -0.00	 0.0	 0.0	 1	    1.01458	  -30.15217	 90.0	 1	    1.06667	    0.97778;
	312	 1	 2.00	 -2.60	 0.0	 0.0	 1	    1.06019	  -21.51668	 90.0	 1	    1.07778	    0.92222;
	313	 1	 37.34	 2.40	 0.0	 0.0	 1	    1.03622	  -21.53099	 63.0	 1	    1.07937	    0.92063;
	314	 1	 0.00	 0.00	 0.0	 0.0	 1	    1.06987	  -17.02784	 225.0	 1	    1.08889	    1.00000;
	315	 1	 21.50	 -0.10	 0.0	 0.0	 1	    1.06634	  -37.81336	 90.0	 1	    1.07778	    0.97778;
	316	 1	 41.19	 2.40	 0.0	 0.0	 1	    1.04650	  -22.44885	 63.0	 1	    1.07937	    0.92063;
	317	 2	 0.00	 0.00	 0.0	 0.0	 1	    1.05427	   -5.34095	 63.0	 1	    1.07937	    0.92063;
	318	 1	 15.99	 4.80	 0.0	 0.0	 1	    1.01940	  -41.90818	 63.0	 1	    1.04762	    0.95238;