%%%%%%%%%%%%%%%%%%%%%%%%%%%%%%%%%%%%%%%%%%%%%%%%%%%%%%%%%%%%%%%%%%%%%%%%%%%
%%%%                                                                  %%%%%
%%%%    IEEE PES Power Grid Library - Optimal Power Flow - v17.07     %%%%%
%%%%          (https://github.com/power-grid-lib/pglib-opf)           %%%%%
%%%%             Benchmark Group - Active Power Increase              %%%%%
%%%%                         27 - June - 2017                         %%%%%
%%%%                                                                  %%%%%
%%%%%%%%%%%%%%%%%%%%%%%%%%%%%%%%%%%%%%%%%%%%%%%%%%%%%%%%%%%%%%%%%%%%%%%%%%%
function mpc = pglib_opf_case1354_pegase__api
mpc.version = '2';
mpc.baseMVA = 100.0;

%% bus data
%	bus_i	type	Pd	Qd	Gs	Bs	area	Vm	Va	baseKV	zone	Vmax	Vmin
mpc.bus = [
	3	 1	 167.87	 48.80	 0.0	 4.69	 0	    1.08078	  -19.08542	 220.0	 5	    1.10000	    0.90000;
	4	 1	 190.56	 23.40	 0.0	 2.1	 0	    1.07566	    1.94725	 220.0	 5	    1.10000	    0.90000;
	10	 1	 148.97	 24.70	 0.0	 12.44	 0	    0.95889	  -39.09719	 220.0	 5	    1.10000	    0.90000;
	21	 1	 179.21	 39.30	 0.0	 30.71	 0	    0.95311	  -35.38692	 220.0	 5	    1.10000	    0.90000;
	22	 1	 0.00	 -0.00	 0.0	 0.85	 0	    1.01209	  -28.53387	 220.0	 5	    1.10000	    0.90000;
	26	 1	 185.99	 54.80	 0.0	 110.54	 0	    1.07901	   -3.45331	 380.0	 5	    1.10000	    0.90000;
	29	 1	 169.98	 49.40	 0.0	 27.65	 0	    1.05275	  -11.24360	 380.0	 5	    1.10000	    0.90000;
	44	 1	 -0.00	 0.00	 0.0	 7.27	 0	    0.96858	  -36.24108	 220.0	 5	    1.10000	    0.90000;
	53	 1	 54.09	 16.10	 0.0	 7.14	 0	    1.09739	   11.77808	 220.0	 5	    1.10000	    0.90000;
	58	 1	 0.00	 0.00	 0.0	 2.31	 0	    1.04566	  -11.67903	 380.0	 5	    1.10000	    0.90000;
	59	 1	 132.52	 20.70	 0.0	 3.31	 0	    1.08199	  -15.91307	 220.0	 5	    1.10000	    0.90000;
	90	 1	 403.83	 115.39	 0.0	 3.95	 0	    1.07899	  -24.83681	 220.0	 5	    1.10000	    0.90000;
	96	 1	 -8.40	 28.66	 0.0	 3.49	 0	    1.09548	  -12.77754	 220.0	 5	    1.10000	    0.90000;
	113	 1	 -0.00	 -0.00	 0.0	 6.532711	 0	    1.01867	  -28.69942	 380.0	 5	    1.10000	    0.90000;
	115	 1	 0.00	 -0.00	 0.0	 4.21	 0	    1.00302	  -36.48246	 220.0	 5	    1.10000	    0.90000;
	118	 1	 704.53	 -35.33	 0.0	 13.102834	 0	    1.07924	  -10.42779	 380.0	 5	    1.10000	    0.90000;
	124	 2	 0.00	 0.00	 0.0	 0.0	 0	    1.09888	   10.97740	 220.0	 5	    1.10000	    0.90000;
	128	 1	 26.38	 12.70	 0.0	 0.52	 0	    1.00276	  -28.90761	 220.0	 5	    1.10000	    0.90000;
	145	 1	 42.62	 5.60	 0.0	 7.64	 0	    1.08146	   -6.81998	 220.0	 5	    1.10000	    0.90000;
	148	 1	 35.95	 12.00	 0.0	 6.1	 0	    1.09257	    5.36624	 220.0	 5	    1.10000	    0.90000;
	150	 2	 0.00	 0.00	 0.0	 0.0	 0	    1.10000	    8.82555	 220.0	 5	    1.10000	    0.90000;
	163	 1	 164.27	 32.73	 0.0	 8.34	 0	    1.04132	  -19.67216	 220.0	 5	    1.10000	    0.90000;
	171	 1	 112.06	 13.20	 0.0	 5.24	 0	    1.09956	  -27.08754	 220.0	 5	    1.10000	    0.90000;
	174	 1	 370.50	 -17.00	 0.0	 9.91	 0	    1.06219	  -42.10303	 220.0	 5	    1.10000	    0.90000;
	184	 1	 -0.00	 -0.00	 0.0	 2.42	 0	    1.02269	  -26.82821	 220.0	 5	    1.10000	    0.90000;
	188	 1	 40.96	 13.90	 0.0	 3.3	 0	    0.99824	  -33.54774	 220.0	 5	    1.10000	    0.90000;
	195	 1	 81.31	 21.55	 0.0	 8.52	 0	    1.09557	    5.73579	 220.0	 5	    1.10000	    0.90000;
	196	 1	 0.00	 -0.00	 0.0	 12.48	 0	    0.97305	  -42.93577	 220.0	 5	    1.10000	    0.90000;
	198	 1	 44.18	 11.80	 0.0	 1.44	 0	    0.99890	  -29.10572	 220.0	 5	    1.10000	    0.90000;
	207	 1	 357.95	 84.40	 0.0	 1.34	 0	    1.00922	  -28.80136	 220.0	 5	    1.10000	    0.90000;
	216	 1	 172.98	 54.70	 0.0	 2.21	 0	    1.02445	  -25.32828	 220.0	 5	    1.10000	    0.90000;
	217	 1	 116.95	 0.10	 0.0	 7.36	 0	    1.04519	  -13.46080	 220.0	 5	    1.10000	    0.90000;
	218	 1	 77.63	 15.12	 0.0	 2.23	 0	    1.06009	  -17.02882	 220.0	 5	    1.10000	    0.90000;
	221	 2	 0.00	 0.00	 0.0	 0.0	 0	    1.04096	  -11.94339	 380.0	 5	    1.10000	    0.90000;
	225	 1	 0.00	 0.00	 0.0	 1.15	 0	    0.99962	  -36.95741	 220.0	 5	    1.10000	    0.90000;
	280	 1	 132.96	 29.60	 0.0	 5.34	 0	    1.03927	  -18.71149	 220.0	 5	    1.10000	    0.90000;
	283	 1	 30.38	 11.90	 0.0	 1.17	 0	    1.02112	  -27.31617	 220.0	 5	    1.10000	    0.90000;
	292	 1	 15.36	 1.40	 0.0	 0.7	 0	    1.09069	  -18.73459	 220.0	 5	    1.10000	    0.90000;
	305	 1	 114.51	 12.00	 0.0	 0.63	 0	    1.06670	  -41.31838	 220.0	 5	    1.10000	    0.90000;
	306	 1	 -0.00	 0.00	 0.0	 4.76	 0	    0.94150	  -34.17760	 220.0	 5	    1.10000	    0.90000;
	314	 1	 181.32	 46.30	 0.0	 10.6	 0	    0.98804	  -28.14207	 220.0	 5	    1.10000	    0.90000;
	333	 1	 583.10	 43.00	 0.0	 6.85	 0	    1.02680	  -53.37218	 220.0	 5	    1.10000	    0.90000;
	338	 2	 0.00	 0.00	 0.0	 0.0	 0	    1.09247	   -4.85282	 220.0	 5	    1.10000	    0.90000;
	346	 1	 219.57	 48.30	 0.0	 0.71	 0	    1.01762	  -26.22985	 220.0	 5	    1.10000	    0.90000;
	350	 1	 122.73	 26.20	 0.0	 5.62	 0	    0.94215	  -33.93048	 220.0	 5	    1.10000	    0.90000;
	352	 2	 0.00	 0.00	 0.0	 0.0	 0	    0.92645	  -16.91334	 380.0	 5	    1.10000	    0.90000;
	367	 1	 65.17	 -51.50	 0.0	 4.85	 0	    0.97521	  -39.28838	 220.0	 5	    1.10000	    0.90000;
	401	 1	 62.81	 36.29	 0.0	 3.08	 0	    1.09375	  -15.65725	 220.0	 5	    1.10000	    0.90000;
	408	 1	 143.52	 7.40	 0.0	 0.04	 0	    1.03959	  -26.86914	 220.0	 5	    1.10000	    0.90000;
	410	 1	 189.98	 50.38	 0.0	 6.44	 0	    1.08900	  -18.38049	 220.0	 5	    1.10000	    0.90000;
	413	 2	 0.00	 0.00	 0.0	 0.0	 0	    1.01287	  -23.92310	 220.0	 5	    1.10000	    0.90000;
	416	 1	 78.58	 13.50	 0.0	 6.96	 0	    1.07355	  -12.01777	 220.0	 5	    1.10000	    0.90000;
	426	 1	 136.85	 6.50	 0.0	 3.25	 0	    1.05570	  -24.95210	 220.0	 5	    1.10000	    0.90000;
	432	 1	 -0.00	 -0.00	 0.0	 68.517663	 0	    1.08606	    8.32558	 380.0	 5	    1.10000	    0.90000;
	444	 1	 0.00	 -0.00	 0.0	 2.45	 0	    1.02000	  -27.34046	 220.0	 5	    1.10000	    0.90000;
	449	 1	 0.00	 0.00	 0.0	 29.42	 0	    0.94464	  -26.16485	 380.0	 5	    1.10000	    0.90000;
	453	 2	 0.00	 0.00	 0.0	 0.0	 0	    1.07381	   -6.21867	 380.0	 5	    1.10000	    0.90000;
	455	 1	 304.97	 5.66	 0.0	 13.24	 0	    1.06060	  -40.16724	 220.0	 5	    1.10000	    0.90000;
	490	 1	 22.81	 4.00	 0.0	 2.77	 0	    0.93590	  -37.73399	 220.0	 5	    1.10000	    0.90000;
	500	 1	 160.53	 35.50	 0.0	 7.66	 0	    1.08199	  -16.04878	 220.0	 5	    1.10000	    0.90000;
	502	 1	 -0.00	 0.00	 0.0	 1.96	 0	    1.09833	    4.71212	 220.0	 5	    1.10000	    0.90000;
	506	 1	 -0.00	 0.00	 0.0	 0.4	 0	    1.09918	  -18.42709	 380.0	 5	    1.10000	    0.90000;
	513	 1	 63.88	 17.10	 0.0	 1.61	 0	    1.09214	    4.39766	 220.0	 5	    1.10000	    0.90000;
	516	 2	 0.00	 0.00	 0.0	 0.0	 0	    1.09562	  -44.75538	 220.0	 5	    1.10000	    0.90000;
	520	 1	 131.74	 20.40	 0.0	 2.57	 0	    1.09319	  -20.43216	 220.0	 5	    1.10000	    0.90000;
	549	 1	 0.00	 -0.00	 0.0	 5.15	 0	    1.09935	    4.70552	 220.0	 5	    1.10000	    0.90000;
	554	 1	 0.00	 -0.00	 0.0	 1.97	 0	    0.99984	  -31.22685	 220.0	 5	    1.10000	    0.90000;
	556	 1	 18.37	 9.00	 0.0	 1.17	 0	    0.93808	  -37.39927	 220.0	 5	    1.10000	    0.90000;
	561	 1	 0.00	 -0.00	 0.0	 0.32	 0	    1.09652	    8.32760	 220.0	 5	    1.10000	    0.90000;
	564	 2	 0.00	 0.00	 0.0	 0.0	 0	    1.10000	  -34.25123	 220.0	 5	    1.10000	    0.90000;
	575	 1	 0.00	 -0.00	 0.0	 0.67	 0	    1.03553	  -26.23802	 220.0	 5	    1.10000	    0.90000;
	583	 2	 0.00	 0.00	 0.0	 0.0	 0	    1.08166	  -14.09408	 220.0	 5	    1.10000	    0.90000;
	594	 1	 75.12	 17.00	 0.0	 5.75	 0	    0.99480	  -25.10186	 220.0	 5	    1.10000	    0.90000;
	601	 1	 156.31	 42.60	 0.0	 5.71	 0	    1.08877	  -20.84163	 220.0	 5	    1.10000	    0.90000;
	604	 1	 36.95	 4.40	 0.0	 24.54	 0	    0.96184	  -23.89007	 380.0	 5	    1.10000	    0.90000;
	608	 1	 167.76	 10.40	 0.0	 4.77	 0	    1.09578	  -34.61293	 220.0	 5	    1.10000	    0.90000;
	609	 1	 -0.00	 -0.00	 0.0	 5.67	 0	    1.06275	  -17.93517	 220.0	 5	    1.10000	    0.90000;
	615	 2	 0.00	 0.00	 0.0	 0.0	 0	    1.09996	  -12.27443	 220.0	 5	    1.10000	    0.90000;
	616	 2	 0.00	 0.00	 0.0	 0.0	 0	    1.09854	  -20.41819	 220.0	 5	    1.10000	    0.90000;
	619	 1	 81.02	 14.40	 0.0	 2.96	 0	    1.01352	  -37.07530	 220.0	 5	    1.10000	    0.90000;
	639	 2	 0.00	 0.00	 0.0	 0.0	 0	    1.09593	  -14.81070	 220.0	 5	    1.10000	    0.90000;
	641	 1	 50.38	 18.50	 0.0	 0.74	 0	    1.09751	  -12.26573	 220.0	 5	    1.10000	    0.90000;
	658	 1	 287.27	 66.70	 0.0	 5.87	 0	    1.05842	  -27.18443	 220.0	 5	    1.10000	    0.90000;
	661	 1	 -0.00	 -0.00	 0.0	 0.6	 0	    1.04162	   -9.05334	 380.0	 5	    1.10000	    0.90000;
	666	 1	 -5.61	 -2.79	 0.0	 150.93	 0	    1.01684	  -11.81164	 380.0	 5	    1.10000	    0.90000;
	678	 1	 258.03	 89.80	 0.0	 0.09	 0	    1.08677	  -14.35258	 220.0	 5	    1.10000	    0.90000;
	682	 2	 0.00	 0.00	 0.0	 0.0	 0	    1.09528	    6.90135	 220.0	 5	    1.10000	    0.90000;
	687	 1	 -0.00	 0.00	 0.0	 5.6	 0	    1.02598	  -20.22129	 220.0	 5	    1.10000	    0.90000;
	707	 1	 93.37	 21.20	 0.0	 5.36	 0	    1.08699	  -26.07981	 220.0	 5	    1.10000	    0.90000;
	718	 1	 150.21	 41.00	 0.0	 5.31	 0	    1.07825	  -20.70785	 220.0	 5	    1.10000	    0.90000;
	720	 1	 -0.00	 -0.00	 0.0	 23.554121	 0	    1.02592	  -11.46565	 380.0	 5	    1.10000	    0.90000;
	726	 1	 445.02	 189.90	 0.0	 0.53	 0	    1.01614	  -21.24753	 220.0	 5	    1.10000	    0.90000;
	742	 1	 0.00	 -0.00	 0.0	 2.83	 0	    1.02615	  -20.22280	 220.0	 5	    1.10000	    0.90000;
	747	 1	 77.35	 16.00	 0.0	 3.03	 0	    0.97201	  -43.01923	 220.0	 5	    1.10000	    0.90000;
	749	 2	 0.00	 0.00	 0.0	 0.0	 0	    1.08173	  -32.59441	 220.0	 5	    1.10000	    0.90000;
	750	 1	 -0.00	 -0.00	 0.0	 18.63	 0	    1.02628	  -25.16259	 220.0	 5	    1.10000	    0.90000;
	757	 2	 0.00	 0.00	 0.0	 0.0	 0	    0.99301	  -26.00034	 380.0	 5	    1.10000	    0.90000;
	766	 1	 -0.00	 0.00	 0.0	 7.85	 0	    1.09352	   -4.73744	 220.0	 5	    1.10000	    0.90000;
	769	 1	 169.62	 40.00	 0.0	 6.12	 0	    0.99799	  -25.90952	 220.0	 5	    1.10000	    0.90000;
	772	 1	 382.32	 141.90	 0.0	 5.55	 0	    1.06858	  -16.64726	 220.0	 5	    1.10000	    0.90000;
	776	 2	 0.00	 0.00	 0.0	 0.0	 0	    1.08831	   -4.72426	 220.0	 5	    1.10000	    0.90000;
	778	 2	 0.00	 0.00	 0.0	 0.0	 0	    1.09802	   -2.47044	 220.0	 5	    1.10000	    0.90000;
	789	 1	 -0.00	 -0.00	 0.0	 6.63	 0	    1.08841	   -8.95586	 220.0	 5	    1.10000	    0.90000;
	795	 2	 0.00	 0.00	 0.0	 0.0	 0	    1.10000	  -11.30893	 220.0	 5	    1.10000	    0.90000;
	800	 1	 56.21	 18.00	 0.0	 0.11	 0	    1.02067	  -27.35539	 220.0	 5	    1.10000	    0.90000;
	803	 2	 0.00	 0.00	 0.0	 0.0	 0	    1.09157	  -18.90060	 220.0	 5	    1.10000	    0.90000;
	804	 1	 -0.00	 -0.00	 0.0	 7.26	 0	    1.10000	   -5.47325	 220.0	 5	    1.10000	    0.90000;
	805	 1	 138.41	 29.60	 0.0	 15.4	 0	    1.06853	  -15.37061	 220.0	 5	    1.10000	    0.90000;
	809	 1	 0.00	 -0.00	 0.0	 58.088687	 0	    0.98969	  -17.13874	 380.0	 5	    1.10000	    0.90000;
	819	 1	 0.00	 -0.00	 0.0	 0.22	 0	    1.09613	    1.24944	 220.0	 5	    1.10000	    0.90000;
	823	 2	 0.00	 0.00	 0.0	 0.0	 0	    0.92815	  -19.13427	 380.0	 5	    1.10000	    0.90000;
	839	 1	 -0.00	 -0.00	 0.0	 8.17514	 0	    0.98673	  -17.80609	 380.0	 5	    1.10000	    0.90000;
	851	 2	 0.00	 0.00	 0.0	 0.0	 0	    1.09984	  -13.22037	 220.0	 5	    1.10000	    0.90000;
	858	 2	 0.00	 0.00	 0.0	 0.0	 0	    0.99210	  -16.27082	 380.0	 5	    1.10000	    0.90000;
	870	 1	 122.29	 3.40	 0.0	 11.95	 0	    1.02583	  -25.34232	 220.0	 5	    1.10000	    0.90000;
	871	 1	 108.89	 -21.76	 0.0	 3.72	 0	    1.09546	    7.96848	 220.0	 5	    1.10000	    0.90000;
	883	 1	 214.01	 78.30	 0.0	 6.65	 0	    1.06329	   -8.85016	 220.0	 5	    1.10000	    0.90000;
	891	 2	 0.00	 0.00	 0.0	 0.0	 0	    1.07277	  -32.73204	 380.0	 5	    1.10000	    0.90000;
	892	 1	 -0.00	 -0.00	 0.0	 9.1	 0	    1.09338	  -45.73028	 220.0	 5	    1.10000	    0.90000;
	900	 1	 0.00	 0.00	 0.0	 0.15	 0	    1.08294	    3.20391	 220.0	 5	    1.10000	    0.90000;
	903	 1	 91.93	 20.10	 0.0	 1.36	 0	    0.97197	  -43.05299	 220.0	 5	    1.10000	    0.90000;
	905	 1	 631.71	 -54.16	 0.0	 7.534129	 0	    1.05492	  -16.14414	 380.0	 5	    1.10000	    0.90000;
	907	 1	 -0.00	 -0.00	 0.0	 0.05	 0	    1.07930	   -7.87165	 220.0	 5	    1.10000	    0.90000;
	908	 1	 125.90	 -0.50	 0.0	 0.21	 0	    1.09965	   13.21566	 220.0	 5	    1.10000	    0.90000;
	920	 1	 38.29	 8.50	 0.0	 1.11	 0	    1.02286	  -25.61215	 220.0	 5	    1.10000	    0.90000;
	923	 1	 69.00	 14.70	 0.0	 4.84	 0	    0.93532	  -37.83560	 220.0	 5	    1.10000	    0.90000;
	933	 1	 -0.00	 0.00	 0.0	 22.75	 0	    1.07951	  -19.22714	 220.0	 5	    1.10000	    0.90000;
	935	 1	 -0.00	 0.00	 0.0	 9.46	 0	    1.01659	  -36.12363	 220.0	 5	    1.10000	    0.90000;
	953	 1	 108.70	 -12.15	 0.0	 37.11	 0	    1.04419	  -27.23159	 380.0	 5	    1.10000	    0.90000;
	954	 1	 73.67	 13.60	 0.0	 0.67	 0	    1.05026	  -28.22641	 220.0	 5	    1.10000	    0.90000;
	960	 1	 -0.00	 -0.00	 0.0	 108.728602	 0	    1.09918	  -18.42709	 380.0	 5	    1.10000	    0.90000;
	964	 1	 98.39	 16.50	 0.0	 146.44	 0	    0.99768	  -22.10127	 380.0	 5	    1.10000	    0.90000;
	972	 2	 0.00	 0.00	 0.0	 0.0	 0	    1.04338	   -1.38153	 380.0	 5	    1.30000	    0.70000;
	980	 1	 16.35	 4.60	 0.0	 7.88	 0	    1.01405	  -36.94115	 220.0	 5	    1.10000	    0.90000;
	1001	 2	 0.00	 0.00	 0.0	 0.0	 0	    1.09557	  -44.78645	 220.0	 5	    1.10000	    0.90000;
	1002	 2	 0.00	 0.00	 0.0	 0.0	 0	    1.02656	  -23.36805	 220.0	 5	    1.10000	    0.90000;
	1005	 1	 0.00	 0.00	 0.0	 0.81	 0	    1.10000	  -14.02316	 220.0	 5	    1.10000	    0.90000;
	1015	 1	 44.55	 0.00	 0.0	 4.78	 0	    1.09605	   -8.30480	 220.0	 5	    1.10000	    0.90000;
	1026	 1	 223.90	 53.00	 0.0	 9.67	 0	    1.06782	  -27.97893	 220.0	 5	    1.10000	    0.90000;
	1027	 1	 -5.91	 -2.33	 0.0	 30.393595	 0	    0.91736	  -31.63611	 380.0	 5	    1.10000	    0.90000;
	1033	 1	 29.27	 5.30	 0.0	 4.31	 0	    1.02605	  -25.24333	 220.0	 5	    1.10000	    0.90000;
	1035	 1	 425.24	 57.90	 0.0	 8.16	 0	    1.06737	  -41.19333	 220.0	 5	    1.10000	    0.90000;
	1039	 1	 34.64	 -0.00	 0.0	 0.91	 0	    1.07720	  -19.27997	 220.0	 5	    1.10000	    0.90000;
	1040	 1	 35.51	 8.80	 0.0	 3.79	 0	    1.08108	   -6.96761	 220.0	 5	    1.10000	    0.90000;
	1043	 2	 0.00	 0.00	 0.0	 0.0	 0	    1.08164	   -2.77027	 380.0	 5	    1.10000	    0.90000;
	1051	 1	 -0.00	 0.00	 0.0	 3.79	 0	    1.09797	  -14.87057	 220.0	 5	    1.10000	    0.90000;
	1077	 1	 -0.00	 0.00	 0.0	 0.1	 0	    1.02112	  -27.31619	 220.0	 5	    1.10000	    0.90000;
	1078	 1	 -0.00	 -0.00	 0.0	 4.74	 0	    1.10000	   -6.49827	 220.0	 5	    1.10000	    0.90000;
	1081	 1	 308.90	 58.95	 0.0	 182.880644	 0	    1.05117	  -17.27238	 380.0	 5	    1.10000	    0.90000;
	1083	 2	 0.00	 0.00	 0.0	 0.0	 0	    1.09118	  -11.52252	 220.0	 5	    1.10000	    0.90000;
	1090	 1	 62.32	 18.70	 0.0	 4.24	 0	    0.91748	  -38.02589	 220.0	 5	    1.10000	    0.90000;
	1093	 2	 0.00	 0.00	 0.0	 0.0	 0	    1.01666	  -18.39705	 380.0	 5	    1.10000	    0.90000;
	1096	 1	 0.00	 -0.00	 0.0	 0.16	 0	    1.09612	    1.33637	 220.0	 5	    1.10000	    0.90000;
	1100	 2	 0.00	 0.00	 0.0	 0.0	 0	    1.08782	   -2.24433	 220.0	 5	    1.10000	    0.90000;
	1101	 1	 -0.00	 -0.00	 0.0	 2.05	 0	    1.07952	  -18.06952	 220.0	 5	    1.10000	    0.90000;
	1102	 2	 0.00	 0.00	 0.0	 0.0	 0	    1.01271	  -23.95127	 220.0	 5	    1.10000	    0.90000;
	1105	 1	 33.16	 7.30	 0.0	 6.49	 0	    0.97296	  -42.94381	 220.0	 5	    1.10000	    0.90000;
	1111	 1	 0.00	 0.00	 0.0	 1.1	 0	    0.99493	  -25.10377	 220.0	 5	    1.10000	    0.90000;
	1129	 1	 211.75	 55.03	 0.0	 6.7	 0	    0.90952	  -39.16531	 220.0	 5	    1.10000	    0.90000;
	1136	 1	 18.03	 2.00	 0.0	 0.71	 0	    1.01180	  -28.59873	 220.0	 5	    1.10000	    0.90000;
	1137	 1	 -0.00	 -0.00	 0.0	 0.05	 0	    1.01600	  -36.10694	 220.0	 5	    1.10000	    0.90000;
	1146	 1	 32.84	 -0.00	 0.0	 1.41	 0	    1.04618	  -12.36629	 220.0	 5	    1.10000	    0.90000;
	1151	 1	 -0.00	 -0.00	 0.0	 18.82	 0	    1.02176	  -25.27787	 220.0	 5	    1.10000	    0.90000;
	1153	 1	 13.80	 3.90	 0.0	 2.23	 0	    1.01483	  -20.22554	 220.0	 5	    1.10000	    0.90000;
	1156	 1	 73.01	 24.00	 0.0	 9.95	 0	    0.94310	  -36.92126	 220.0	 5	    1.10000	    0.90000;
	1159	 1	 124.96	 13.00	 0.0	 3.99	 0	    1.07089	  -47.76318	 220.0	 5	    1.10000	    0.90000;
	1172	 1	 -0.00	 -0.00	 0.0	 2.3	 0	    0.97411	  -41.91056	 220.0	 5	    1.10000	    0.90000;
	1179	 1	 96.28	 23.40	 0.0	 0.39	 0	    1.04324	  -13.68234	 220.0	 5	    1.10000	    0.90000;
	1183	 1	 199.40	 -19.90	 0.0	 6.68	 0	    1.08284	  -44.80525	 220.0	 5	    1.10000	    0.90000;
	1187	 1	 75.12	 21.20	 0.0	 5.71	 0	    1.05603	  -11.43892	 220.0	 5	    1.10000	    0.90000;
	1188	 1	 34.39	 6.60	 0.0	 9.09	 0	    1.08821	  -17.66014	 220.0	 5	    1.10000	    0.90000;
	1194	 1	 144.08	 13.30	 0.0	 13.98	 0	    1.03212	  -29.48037	 380.0	 5	    1.10000	    0.90000;
	1198	 1	 0.00	 0.00	 0.0	 30.637696	 0	    1.04147	  -12.80981	 380.0	 5	    1.10000	    0.90000;
	1201	 1	 126.85	 23.50	 0.0	 1.08	 0	    1.09646	  -11.55576	 220.0	 5	    1.10000	    0.90000;
	1216	 1	 0.00	 0.00	 0.0	 4.93	 0	    1.01184	  -26.15022	 220.0	 5	    1.10000	    0.90000;
	1233	 1	 0.00	 -0.00	 0.0	 1.72	 0	    0.94292	  -36.95630	 220.0	 5	    1.10000	    0.90000;
	1234	 1	 79.80	 17.90	 0.0	 1.96	 0	    1.02993	  -22.84955	 220.0	 5	    1.10000	    0.90000;
	1237	 2	 0.00	 0.00	 0.0	 0.0	 0	    1.09897	  -18.08098	 380.0	 5	    1.30000	    0.70000;
	1248	 1	 0.00	 0.00	 0.0	 1.17	 0	    1.04148	  -19.67370	 220.0	 5	    1.10000	    0.90000;
	1249	 1	 387.91	 26.47	 0.0	 9.36	 0	    1.06749	  -11.41017	 380.0	 5	    1.10000	    0.90000;
	1251	 2	 0.00	 0.00	 0.0	 0.0	 0	    1.01648	  -18.44246	 380.0	 5	    1.10000	    0.90000;
	1262	 1	 -0.00	 0.00	 0.0	 10.73	 0	    0.94332	  -36.43033	 220.0	 5	    1.10000	    0.90000;
	1265	 1	 173.00	 -21.30	 0.0	 5.93	 0	    1.09001	  -52.11344	 220.0	 5	    1.10000	    0.90000;
	1275	 1	 58.32	 2.90	 0.0	 0.35	 0	    1.02509	  -25.25491	 220.0	 5	    1.10000	    0.90000;
	1295	 2	 0.00	 0.00	 0.0	 0.0	 0	    1.09059	   -5.37226	 220.0	 5	    1.10000	    0.90000;
	1301	 1	 532.52	 99.20	 0.0	 10.68	 0	    1.05504	  -42.29332	 220.0	 5	    1.10000	    0.90000;
	1305	 1	 -0.00	 -0.00	 0.0	 4.34	 0	    1.08385	  -18.38281	 220.0	 5	    1.10000	    0.90000;
	1311	 1	 42.18	 15.20	 0.0	 35.31	 0	    1.03263	  -36.71824	 380.0	 5	    1.10000	    0.90000;
	1326	 1	 0.00	 0.00	 0.0	 0.98	 0	    1.09353	  -45.73127	 220.0	 5	    1.10000	    0.90000;
	1334	 1	 0.00	 0.00	 0.0	 0.59	 0	    1.03272	  -22.51175	 220.0	 5	    1.10000	    0.90000;
	1341	 2	 0.00	 0.00	 0.0	 0.0	 0	    1.07888	  -18.06537	 220.0	 5	    1.10000	    0.90000;
	1343	 1	 -0.00	 -0.00	 0.0	 58.3	 0	    1.04488	  -13.41360	 380.0	 5	    1.10000	    0.90000;
	1354	 2	 0.00	 0.00	 0.0	 0.0	 0	    1.09704	    4.58354	 220.0	 5	    1.10000	    0.90000;
	1355	 1	 -3.29	 -1.32	 0.0	 190.704588	 0	    1.06224	  -12.06707	 380.0	 5	    1.10000	    0.90000;
	1364	 1	 45.41	 14.50	 0.0	 0.59	 0	    1.03633	  -20.64548	 220.0	 5	    1.10000	    0.90000;
	1380	 1	 161.42	 21.40	 0.0	 1.09	 0	    1.07926	  -14.62694	 220.0	 5	    1.10000	    0.90000;
	1394	 1	 34.39	 7.60	 0.0	 4.69	 0	    0.97291	  -42.92902	 220.0	 5	    1.10000	    0.90000;
	1397	 1	 0.00	 -0.00	 0.0	 2.14	 0	    1.09995	  -14.42349	 220.0	 5	    1.10000	    0.90000;
	1398	 1	 218.68	 44.20	 0.0	 0.1	 0	    1.06369	  -21.24295	 220.0	 5	    1.10000	    0.90000;
	1401	 1	 13.24	 2.90	 0.0	 5.27	 0	    1.04556	  -21.33410	 220.0	 5	    1.10000	    0.90000;
	1414	 1	 160.87	 20.30	 0.0	 6.35	 0	    0.90879	  -36.39523	 220.0	 5	    1.10000	    0.90000;
	1415	 1	 0.00	 -0.00	 0.0	 0.3	 0	    1.02244	  -21.23106	 220.0	 5	    1.10000	    0.90000;
	1422	 2	 0.00	 0.00	 0.0	 0.0	 0	    1.09998	  -17.93975	 220.0	 5	    1.10000	    0.90000;
	1435	 1	 -0.00	 0.00	 0.0	 3.85	 0	    0.95607	  -39.00487	 220.0	 5	    1.10000	    0.90000;
	1436	 2	 0.00	 0.00	 0.0	 0.0	 0	    1.09966	  -14.36024	 220.0	 5	    1.10000	    0.90000;
	1448	 1	 0.00	 0.00	 0.0	 9.49	 0	    0.99587	  -31.76611	 220.0	 5	    1.10000	    0.90000;
	1459	 1	 -0.00	 -0.00	 0.0	 3.38	 0	    1.04885	  -28.54785	 220.0	 5	    1.10000	    0.90000;
	1462	 1	 -0.00	 0.00	 0.0	 0.42	 0	    1.10000	  -17.94026	 220.0	 5	    1.10000	    0.90000;
	1465	 1	 -11.03	 -5.11	 0.0	 29.706803	 0	    0.92121	  -27.92141	 380.0	 5	    1.10000	    0.90000;
	1478	 2	 0.00	 0.00	 0.0	 0.0	 0	    1.09399	  -13.90866	 220.0	 5	    1.10000	    0.90000;
	1483	 1	 0.00	 0.00	 0.0	 4.86	 0	    1.06743	  -32.17372	 220.0	 5	    1.10000	    0.90000;
	1486	 1	 88.48	 18.80	 0.0	 6.78	 0	    0.93677	  -38.11430	 220.0	 5	    1.10000	    0.90000;
	1494	 1	 -1.85	 -1.63	 0.0	 31.424588	 0	    1.05059	  -13.16534	 380.0	 5	    1.10000	    0.90000;
	1502	 1	 -0.00	 0.00	 0.0	 37.116157	 0	    1.04427	  -38.72429	 380.0	 5	    1.10000	    0.90000;
	1504	 1	 0.00	 -0.00	 0.0	 1.84	 0	    1.01402	  -27.97229	 220.0	 5	    1.10000	    0.90000;
	1526	 1	 -10.86	 -5.93	 0.0	 12.54	 0	    1.02267	  -26.82760	 220.0	 5	    1.10000	    0.90000;
	1538	 1	 40.40	 15.20	 0.0	 0.3	 0	    1.02918	  -24.54567	 220.0	 5	    1.10000	    0.90000;
	1539	 1	 81.80	 3.24	 0.0	 52.35	 0	    1.08405	  -20.89434	 220.0	 5	    1.10000	    0.90000;
	1541	 1	 139.41	 45.80	 0.0	 0.0	 0	    1.10000	  -13.66359	 220.0	 5	    1.10000	    0.90000;
	1545	 1	 47.30	 8.20	 0.0	 2.06	 0	    0.96354	  -38.02853	 220.0	 5	    1.10000	    0.90000;
	1547	 1	 -0.00	 -0.00	 0.0	 1.02	 0	    1.08205	  -16.04932	 220.0	 5	    1.10000	    0.90000;
	1551	 1	 -0.00	 -0.00	 0.0	 7.99	 0	    0.96202	  -33.37197	 220.0	 5	    1.10000	    0.90000;
	1552	 1	 22.70	 8.10	 0.0	 35.15	 0	    1.04058	  -30.66732	 380.0	 5	    1.10000	    0.90000;
	1554	 1	 0.00	 -0.00	 0.0	 4.96	 0	    1.00302	  -28.88448	 220.0	 5	    1.10000	    0.90000;
	1556	 1	 -0.00	 -0.00	 0.0	 0.95	 0	    1.09992	  -12.53079	 220.0	 5	    1.10000	    0.90000;
	1562	 1	 86.04	 24.10	 0.0	 2.67	 0	    1.00865	  -37.77635	 220.0	 5	    1.10000	    0.90000;
	1566	 1	 156.90	 -4.00	 0.0	 2.48	 0	    0.95735	  -39.34664	 220.0	 5	    1.10000	    0.90000;
	1568	 1	 76.80	 21.50	 0.0	 1.65	 0	    1.01371	  -36.96080	 220.0	 5	    1.10000	    0.90000;
	1578	 1	 0.00	 -0.00	 0.0	 1.38	 0	    1.03083	  -27.21392	 220.0	 5	    1.10000	    0.90000;
	1584	 1	 0.00	 -0.00	 0.0	 3.24	 0	    1.09402	  -15.64021	 220.0	 5	    1.10000	    0.90000;
	1592	 1	 31.50	 44.80	 0.0	 0.51	 0	    1.02191	  -16.99691	 220.0	 5	    1.10000	    0.90000;
	1595	 1	 79.79	 13.57	 0.0	 3.84	 0	    0.90000	  -38.35491	 220.0	 5	    1.10000	    0.90000;
	1604	 2	 0.00	 0.00	 0.0	 0.0	 0	    1.09842	    4.71136	 220.0	 5	    1.10000	    0.90000;
	1605	 1	 -0.00	 0.00	 0.0	 0.05	 0	    1.08406	  -38.24753	 220.0	 5	    1.10000	    0.90000;
	1607	 1	 73.78	 -0.00	 0.0	 2.69	 0	    1.01675	  -11.91461	 380.0	 5	    1.10000	    0.90000;
	1609	 1	 0.00	 0.00	 0.0	 6.55	 0	    1.05641	  -27.28981	 220.0	 5	    1.10000	    0.90000;
	1625	 1	 81.36	 22.30	 0.0	 8.77	 0	    1.09339	   -4.73578	 220.0	 5	    1.10000	    0.90000;
	1629	 1	 46.64	 8.50	 0.0	 1.05	 0	    1.03735	  -24.75616	 220.0	 5	    1.10000	    0.90000;
	1642	 2	 0.00	 0.00	 0.0	 0.0	 0	    0.99110	  -16.41254	 380.0	 5	    1.10000	    0.90000;
	1643	 1	 106.40	 25.90	 0.0	 11.38	 0	    1.00868	  -37.81517	 220.0	 5	    1.10000	    0.90000;
	1644	 1	 499.79	 245.72	 0.0	 94.55	 0	    0.98911	   -5.18587	 380.0	 5	    1.10000	    0.90000;
	1662	 1	 3.67	 -1.86	 0.0	 3.89	 0	    1.02355	  -25.64487	 220.0	 5	    1.10000	    0.90000;
	1672	 1	 -28.13	 -0.83	 0.0	 0.1	 0	    1.09998	  -12.51740	 220.0	 5	    1.10000	    0.90000;
	1680	 2	 0.00	 0.00	 0.0	 0.0	 0	    0.92766	  -19.27323	 380.0	 5	    1.10000	    0.90000;
	1692	 1	 92.48	 25.80	 0.0	 0.33	 0	    1.03540	  -25.42174	 220.0	 5	    1.10000	    0.90000;
	1704	 1	 69.10	 8.00	 0.0	 2.99	 0	    1.05254	  -24.62261	 220.0	 5	    1.10000	    0.90000;
	1708	 2	 0.00	 0.00	 0.0	 0.0	 0	    1.02722	  -27.90123	 380.0	 5	    1.10000	    0.90000;
	1709	 1	 -15.38	 -4.94	 0.0	 33.241519	 0	    1.01211	  -20.99881	 380.0	 5	    1.10000	    0.90000;
	1711	 1	 25.13	 -61.60	 0.0	 3.68	 0	    1.09787	  -14.55437	 220.0	 5	    1.10000	    0.90000;
	1721	 2	 0.00	 0.00	 0.0	 0.0	 0	    1.09845	    8.51747	 220.0	 5	    1.10000	    0.90000;
	1730	 1	 -17.18	 -4.35	 0.0	 44.419365	 0	    0.97346	  -30.14659	 380.0	 5	    1.10000	    0.90000;
	1742	 1	 0.00	 0.00	 0.0	 6.68	 0	    1.05287	  -37.70659	 220.0	 5	    1.10000	    0.90000;
	1746	 1	 -0.00	 0.00	 0.0	 1.86	 0	    1.01690	  -35.70991	 220.0	 5	    1.10000	    0.90000;
	1750	 1	 64.99	 6.60	 0.0	 10.13	 0	    0.99120	  -27.54410	 220.0	 5	    1.10000	    0.90000;
	1754	 2	 0.00	 0.00	 0.0	 0.0	 0	    1.06367	  -26.30204	 380.0	 5	    1.10000	    0.90000;
	1758	 1	 0.00	 -0.00	 0.0	 121.29	 0	    0.92683	  -20.92427	 380.0	 5	    1.10000	    0.90000;
	1763	 1	 -0.00	 -0.00	 0.0	 0.28	 0	    1.05511	  -41.48043	 380.0	 5	    1.10000	    0.90000;
	1767	 1	 333.50	 -1.40	 0.0	 8.37	 0	    1.08261	  -52.87594	 220.0	 5	    1.10000	    0.90000;
	1768	 1	 82.25	 22.50	 0.0	 1.15	 0	    1.03700	  -20.19785	 220.0	 5	    1.10000	    0.90000;
	1775	 1	 -0.00	 0.00	 0.0	 1.64	 0	    1.09801	  -26.31640	 220.0	 5	    1.10000	    0.90000;
	1794	 2	 0.00	 0.00	 0.0	 0.0	 0	    0.92705	  -16.62423	 380.0	 5	    1.10000	    0.90000;
	1798	 1	 -0.63	 -0.83	 0.0	 22.810288	 0	    0.97563	  -18.43842	 380.0	 5	    1.10000	    0.90000;
	1803	 1	 -0.00	 -0.00	 0.0	 0.05	 0	    0.94357	  -36.43237	 220.0	 5	    1.10000	    0.90000;
	1808	 2	 0.00	 0.00	 0.0	 0.0	 0	    1.09681	    2.99636	 220.0	 5	    1.10000	    0.90000;
	1813	 1	 98.85	 19.79	 0.0	 2.81	 0	    1.08012	    2.74934	 220.0	 5	    1.10000	    0.90000;
	1817	 1	 121.08	 33.70	 0.0	 56.24	 0	    1.04960	  -26.70821	 380.0	 5	    1.10000	    0.90000;
	1833	 1	 0.00	 0.00	 0.0	 3.33	 0	    0.94147	  -32.85717	 220.0	 5	    1.10000	    0.90000;
	1838	 1	 0.00	 -0.00	 0.0	 3.02	 0	    0.94476	  -32.99689	 220.0	 5	    1.10000	    0.90000;
	1844	 1	 -28.14	 -0.76	 0.0	 0.1	 0	    1.10000	  -12.51688	 220.0	 5	    1.10000	    0.90000;
	1851	 2	 0.00	 0.00	 0.0	 0.0	 0	    1.09972	  -14.33719	 220.0	 5	    1.10000	    0.90000;
	1852	 2	 0.00	 0.00	 0.0	 0.0	 0	    1.10000	  -19.84675	 220.0	 5	    1.10000	    0.90000;
	1857	 1	 0.00	 0.00	 0.0	 1.53	 0	    1.07811	   -7.51188	 220.0	 5	    1.10000	    0.90000;
	1860	 1	 88.80	 -3.20	 0.0	 13.63	 0	    1.09774	  -22.73642	 220.0	 5	    1.10000	    0.90000;
	1866	 1	 232.57	 23.50	 0.0	 6.44	 0	    1.06966	  -31.76520	 220.0	 5	    1.10000	    0.90000;
	1868	 1	 13.02	 3.80	 0.0	 2.96	 0	    1.09769	  -12.51495	 220.0	 5	    1.10000	    0.90000;
	1876	 1	 -0.00	 -0.00	 0.0	 6.273568	 0	    1.01874	  -28.69921	 380.0	 5	    1.10000	    0.90000;
	1883	 1	 30.38	 5.00	 0.0	 6.77	 0	    1.04652	  -21.76828	 220.0	 5	    1.10000	    0.90000;
	1888	 2	 0.00	 0.00	 0.0	 0.0	 0	    1.03573	  -16.08221	 220.0	 5	    1.10000	    0.90000;
	1895	 1	 20.82	 -0.00	 0.0	 0.14	 0	    1.09323	   13.18784	 220.0	 5	    1.10000	    0.90000;
	1896	 1	 -0.00	 -0.00	 0.0	 1.18	 0	    1.06074	    5.33969	 380.0	 5	    1.10000	    0.90000;
	1910	 1	 -0.00	 0.00	 0.0	 2.68	 0	    1.09707	   -3.05039	 220.0	 5	    1.10000	    0.90000;
	1914	 2	 0.00	 0.00	 0.0	 0.0	 0	    1.08634	  -18.16739	 220.0	 5	    1.10000	    0.90000;
	1917	 1	 197.50	 -31.00	 0.0	 17.34	 0	    1.01781	  -36.83958	 220.0	 5	    1.10000	    0.90000;
	1923	 1	 213.57	 45.50	 0.0	 68.04	 0	    0.92096	  -26.05851	 380.0	 5	    1.10000	    0.90000;
	1940	 1	 0.00	 0.00	 0.0	 1.19	 0	    1.02158	  -30.94804	 220.0	 5	    1.10000	    0.90000;
	1959	 2	 0.00	 0.00	 0.0	 0.0	 0	    1.09996	  -12.27440	 220.0	 5	    1.10000	    0.90000;
	1965	 1	 276.49	 8.10	 0.0	 12.46	 0	    1.08683	  -50.62186	 220.0	 5	    1.10000	    0.90000;
	1973	 1	 233.57	 66.20	 0.0	 59.36	 0	    0.97302	  -42.91008	 220.0	 5	    1.10000	    0.90000;
	1979	 1	 0.00	 0.00	 0.0	 0.14	 0	    1.09557	  -44.78646	 220.0	 5	    1.10000	    0.90000;
	1980	 1	 197.11	 36.40	 0.0	 0.7	 0	    1.01795	  -26.37220	 220.0	 5	    1.10000	    0.90000;
	1998	 1	 28.60	 7.30	 0.0	 2.82	 0	    0.98700	  -28.69670	 220.0	 5	    1.10000	    0.90000;
	2012	 1	 46.08	 4.90	 0.0	 18.43	 0	    0.99369	  -26.92050	 220.0	 5	    1.10000	    0.90000;
	2019	 1	 80.13	 21.30	 0.0	 7.19	 0	    1.02166	  -25.97083	 220.0	 5	    1.10000	    0.90000;
	2020	 1	 0.00	 0.00	 0.0	 9.98	 0	    1.01857	  -35.71728	 220.0	 5	    1.10000	    0.90000;
	2021	 1	 4.34	 1.00	 0.0	 3.81	 0	    1.01745	  -36.65942	 220.0	 5	    1.10000	    0.90000;
	2035	 2	 0.00	 0.00	 0.0	 0.0	 0	    0.99182	  -16.54592	 380.0	 5	    1.10000	    0.90000;
	2042	 1	 15.59	 6.50	 0.0	 0.09	 0	    1.02177	  -20.29491	 220.0	 5	    1.10000	    0.90000;
	2043	 1	 3.56	 1.70	 0.0	 0.05	 0	    1.09996	  -17.94073	 220.0	 5	    1.10000	    0.90000;
	2044	 1	 0.00	 0.00	 0.0	 0.14	 0	    1.09394	  -12.48796	 220.0	 5	    1.10000	    0.90000;
	2050	 2	 0.00	 0.00	 0.0	 0.0	 0	    1.07416	   -2.44471	 380.0	 5	    1.10000	    0.90000;
	2056	 1	 -0.00	 0.00	 0.0	 7.338808	 0	    1.08684	    8.70089	 380.0	 5	    1.10000	    0.90000;
	2057	 1	 133.63	 20.50	 0.0	 19.94	 0	    1.09465	  -15.57986	 220.0	 5	    1.10000	    0.90000;
	2072	 1	 112.51	 2.10	 0.0	 38.43	 0	    1.08644	  -22.42330	 380.0	 5	    1.10000	    0.90000;
	2078	 1	 85.81	 18.60	 0.0	 2.22	 0	    1.07615	  -14.33984	 220.0	 5	    1.10000	    0.90000;
	2079	 1	 0.00	 -0.00	 0.0	 13.94	 0	    1.07970	  -14.94126	 220.0	 5	    1.10000	    0.90000;
	2083	 1	 134.96	 20.20	 0.0	 16.61	 0	    1.01203	  -28.53345	 220.0	 5	    1.10000	    0.90000;