%%%%%%%%%%%%%%%%%%%%%%%%%%%%%%%%%%%%%%%%%%%%%%%%%%%%%%%%%%%%%%%%%%%%%%%%%%%
%%%%                                                                  %%%%%
%%%%    IEEE PES Power Grid Library - Optimal Power Flow - v23.07     %%%%%
%%%%          (https://github.com/power-grid-lib/pglib-opf)           %%%%%
%%%%             Benchmark Group - Active Power Increase              %%%%%
%%%%                         23 - July - 2023                         %%%%%
%%%%                                                                  %%%%%
%%%%%%%%%%%%%%%%%%%%%%%%%%%%%%%%%%%%%%%%%%%%%%%%%%%%%%%%%%%%%%%%%%%%%%%%%%%
function mpc = pglib_opf_case4917_goc__api
mpc.version = '2';
mpc.baseMVA = 100.0;

%% bus data
%	bus_i	type	Pd	Qd	Gs	Bs	area	Vm	Va	baseKV	zone	Vmax	Vmin
mpc.bus = [
	1	 1	 8.25	 -0.23	 0.0	 0.0	 1	    0.99750	    0.00000	 13.0	 1	    1.05000	    0.94500;
	2	 1	 0.0	 0.0	 0.0	 0.0	 1	    0.99750	    0.00000	 13.0	 1	    1.05000	    0.94500;
	3	 1	 0.23	 0.50	 0.0	 0.0	 1	    0.99750	    0.00000	 69.0	 1	    1.05000	    0.94500;
	4	 1	 7.96	 -0.35	 0.0	 0.0	 1	    0.99750	    0.00000	 13.0	 1	    1.05000	    0.94500;
	5	 1	 0.0	 0.0	 0.0	 0.0	 1	    0.99750	    0.00000	 13.0	 1	    1.05000	    0.94500;
	6	 2	 3.28	 3.40	 0.0	 0.0	 1	    0.99750	    0.00000	 69.0	 1	    1.05000	    0.94500;
	7	 1	 7.83	 0.42	 0.0	 0.0	 1	    0.99750	    0.00000	 13.0	 1	    1.05000	    0.94500;
	8	 1	 3.52	 0.49	 0.0	 0.0	 1	    0.99750	    0.00000	 13.0	 1	    1.05000	    0.94500;
	9	 2	 0.0	 0.0	 0.0	 0.0	 1	    0.99750	    0.00000	 69.0	 1	    1.05000	    0.94500;
	10	 1	 2.44	 1.26	 0.0	 0.0	 1	    0.99750	    0.00000	 69.0	 1	    1.05000	    0.94500;
	11	 1	 4.72	 0.73	 0.0	 0.0	 1	    0.99750	    0.00000	 69.0	 1	    1.05000	    0.94500;
	12	 1	 0.0	 0.0	 0.0	 0.0	 1	    0.99750	    0.00000	 69.0	 1	    1.05000	    0.94500;
	13	 1	 0.0	 0.0	 0.0	 0.0	 1	    0.99750	    0.00000	 69.0	 1	    1.05000	    0.94500;
	14	 1	 0.0	 0.0	 0.0	 0.0	 1	    0.99750	    0.00000	 69.0	 1	    1.05000	    0.94500;
	15	 1	 0.0	 0.0	 0.0	 0.0	 1	    0.99750	    0.00000	 69.0	 1	    1.05000	    0.94500;
	16	 2	 0.0	 0.0	 0.0	 0.0	 1	    0.99750	    0.00000	 69.0	 1	    1.05000	    0.94500;
	17	 1	 12.39	 -1.43	 0.0	 0.0	 1	    0.99750	    0.00000	 69.0	 1	    1.05000	    0.94500;
	18	 1	 0.0	 0.0	 0.0	 0.0	 1	    0.99750	    0.00000	 69.0	 1	    1.05000	    0.94500;
	19	 1	 0.0	 0.0	 0.0	 0.0	 1	    0.99750	    0.00000	 69.0	 1	    1.05000	    0.94500;
	20	 1	 8.36	 0.94	 0.0	 0.0	 1	    0.99750	    0.00000	 13.0	 1	    1.05000	    0.94500;
	21	 1	 12.29	 0.40	 0.0	 0.0	 1	    0.99750	    0.00000	 13.0	 1	    1.05000	    0.94500;
	22	 1	 5.22	 0.45	 0.0	 0.0	 1	    0.99750	    0.00000	 13.0	 1	    1.05000	    0.94500;
	23	 1	 0.94	 5.28	 0.0	 6.08	 1	    0.99750	    0.00000	 69.0	 1	    1.05000	    0.94500;
	24	 1	 1.45	 0.89	 0.0	 0.0	 1	    0.99750	    0.00000	 13.0	 1	    1.05000	    0.94500;
	25	 1	 19.22	 -2.48	 0.0	 10.7994369548	 1	    0.99750	    0.00000	 69.0	 1	    1.05000	    0.94500;
	26	 2	 0.0	 0.0	 0.0	 0.0	 1	    0.99750	    0.00000	 69.0	 1	    1.05000	    0.94500;
	27	 1	 11.44	 0.16	 0.0	 0.0	 1	    0.99750	    0.00000	 13.0	 1	    1.05000	    0.94500;
	28	 1	 0.0	 0.0	 0.0	 0.0115112286574	 1	    0.99750	    0.00000	 230.0	 2	    1.05000	    0.94500;
	29	 1	 0.0	 0.0	 0.0	 0.0	 1	    0.99750	    0.00000	 1.0	 2	    1.05000	    0.94500;
	30	 1	 0.0	 0.0	 0.0	 2.58856290847	 1	    0.99750	    0.00000	 115.0	 2	    1.05000	    0.94500;
	31	 1	 -84.54	 19.64	 0.0	 0.0154304188359	 1	    0.99750	    0.00000	 115.0	 2	    1.05000	    0.94500;
	32	 1	 140.12	 51.23	 0.0	 1.9499780274	 1	    0.99750	    0.00000	 115.0	 2	    1.05000	    0.94500;
	33	 1	 0.0	 0.0	 0.0	 0.0	 1	    0.99750	    0.00000	 230.0	 2	    1.05000	    0.94500;
	34	 1	 -141.61	 -0.71	 0.0	 -4.8161904231	 1	    0.99750	    0.00000	 115.0	 2	    1.05000	    0.94500;
	35	 1	 0.0	 0.0	 0.0	 0.00296345705944	 1	    0.99750	    0.00000	 115.0	 2	    1.05000	    0.94500;
	36	 1	 97.17	 -39.91	 0.0	 21.8998089014	 1	    0.99750	    0.00000	 115.0	 2	    1.05000	    0.94500;
	37	 1	 0.0	 0.0	 0.0	 -0.857770246841	 1	    0.99750	    0.00000	 115.0	 2	    1.05000	    0.94500;
	38	 1	 52.45	 5.19	 0.0	 0.0	 1	    0.99750	    0.00000	 115.0	 2	    1.05000	    0.94500;
	39	 1	 26.27	 2.42	 0.0	 2.673	 1	    0.99750	    0.00000	 230.0	 2	    1.05000	    0.94500;
	40	 1	 0.0	 0.0	 0.0	 33.2699471293	 1	    0.99750	    0.00000	 230.0	 2	    1.05000	    0.94500;
	41	 1	 388.33	 -19.05	 0.0	 0.0	 1	    0.99750	    0.00000	 345.0	 2	    1.05000	    0.94500;
	42	 1	 -84.55	 19.64	 0.0	 0.0154249539518	 1	    0.99750	    0.00000	 115.0	 2	    1.05000	    0.94500;
	43	 1	 152.96	 0.16	 0.0	 -17.596	 1	    0.99750	    0.00000	 230.0	 2	    1.05000	    0.94500;
	44	 1	 33.09	 6.80	 0.0	 0.0	 1	    0.99750	    0.00000	 230.0	 2	    1.05000	    0.94500;
	45	 1	 47.24	 2.68	 0.0	 0.0	 1	    0.99750	    0.00000	 230.0	 2	    1.05000	    0.94500;
	46	 2	 0.0	 0.0	 0.0	 0.0	 1	    0.99750	    0.00000	 500.0	 2	    1.05000	    0.94500;
	47	 1	 0.0	 0.0	 0.0	 0.0	 1	    0.99750	    0.00000	 1.0	 2	    1.05000	    0.94500;
	48	 2	 -85.21	 25.69	 0.0	 0.0	 1	    0.99750	    0.00000	 22.8	 2	    1.05000	    0.94500;
	49	 1	 0.0	 0.0	 0.0	 47.499852397	 1	    0.99750	    0.00000	 230.0	 2	    1.05000	    0.94500;
	50	 2	 0.0	 0.0	 0.0	 -109.984	 1	    0.99750	    0.00000	 345.0	 2	    1.05000	    0.94500;
	51	 1	 0.0	 0.0	 0.0	 -0.353698269531	 1	    0.99750	    0.00000	 138.0	 2	    1.05000	    0.94500;
	52	 1	 -95.88	 20.57	 0.0	 0.0	 1	    0.99750	    0.00000	 21.0	 2	    1.05000	    0.94500;
	53	 1	 96.94	 -19.25	 0.0	 3.52997945004	 1	    0.99750	    0.00000	 230.0	 2	    1.05000	    0.94500;
	54	 2	 134.93	 -36.27	 0.0	 0.0	 1	    0.99750	    0.00000	 115.0	 2	    1.05000	    0.94500;
	55	 1	 -193.30	 -6.23	 0.0	 -0.00429687080184	 1	    0.99750	    0.00000	 115.0	 2	    1.05000	    0.94500;
	56	 1	 0.0	 0.0	 0.0	 -3.98369073905	 1	    0.99750	    0.00000	 115.0	 2	    1.05000	    0.94500;
	57	 1	 100.95	 23.13	 0.0	 44.7657810229	 1	    0.99750	    0.00000	 161.0	 2	    1.05000	    0.94500;
	58	 1	 0.0	 0.0	 0.0	 -0.868921177249	 1	    0.99750	    0.00000	 230.0	 2	    1.05000	    0.94500;
	59	 2	 77.88	 15.26	 0.0	 0.0	 1	    0.99750	    0.00000	 161.0	 2	    1.05000	    0.94500;
	60	 1	 -43.83	 24.65	 0.0	 -0.00134789283948	 1	    0.99750	    0.00000	 115.0	 2	    1.05000	    0.94500;
	61	 1	 120.22	 72.65	 0.0	 117.171948383	 1	    0.99750	    0.00000	 115.0	 2	    1.05000	    0.94500;
	62	 1	 35.40	 4.79	 0.0	 0.0	 1	    0.99750	    0.00000	 230.0	 2	    1.05000	    0.94500;
	63	 1	 0.0	 0.0	 0.0	 -2.39870628637	 1	    0.99750	    0.00000	 138.0	 2	    1.05000	    0.94500;
	64	 1	 0.0	 0.0	 0.0	 -0.0158257362728	 1	    0.99750	    0.00000	 230.0	 2	    1.05000	    0.94500;
	65	 1	 0.0	 0.0	 0.0	 -0.00543947763116	 1	    0.99750	    0.00000	 230.0	 2	    1.05000	    0.94500;
	66	 1	 0.0	 0.0	 0.0	 16.9282887087	 1	    0.99750	    0.00000	 230.0	 2	    1.05000	    0.94500;
	67	 1	 0.0	 0.0	 0.0	 10.73167357	 1	    0.99750	    0.00000	 230.0	 2	    1.05000	    0.94500;
	68	 1	 0.0	 0.0	 0.0	 -0.0350512421951	 1	    0.99750	    0.00000	 161.0	 2	    1.05000	    0.94500;
	69	 2	 41.88	 5.28	 0.0	 -47.238	 1	    0.99750	    0.00000	 230.0	 2	    1.05000	    0.94500;
	70	 2	 0.0	 0.0	 0.0	 0.0	 1	    0.99750	    0.00000	 230.0	 2	    1.05000	    0.94500;
	71	 1	 -141.60	 -1.20	 0.0	 -5.30192331945	 1	    0.99750	    0.00000	 115.0	 2	    1.05000	    0.94500;
	72	 1	 0.0	 0.0	 0.0	 0.0	 1	    0.99750	    0.00000	 230.0	 2	    1.05000	    0.94500;
	73	 2	 0.0	 0.0	 0.0	 17.995	 1	    0.99750	    0.00000	 1.0	 2	    1.05000	    0.94500;
	74	 1	 136.47	 -31.26	 0.0	 12.4398188082	 1	    0.99750	    0.00000	 115.0	 2	    1.05000	    0.94500;
	75	 1	 0.0	 0.0	 0.0	 0.0	 1	    0.99750	    0.00000	 230.0	 2	    1.05000	    0.94500;
	76	 1	 38.70	 3.70	 0.0	 0.00280008871111	 1	    0.99750	    0.00000	 115.0	 2	    1.05000	    0.94500;
	77	 1	 21.41	 -4.73	 0.0	 6.63977873646	 1	    0.99750	    0.00000	 230.0	 2	    1.05000	    0.94500;
	78	 2	 0.0	 0.0	 0.0	 12.364	 1	    0.99750	    0.00000	 1.0	 2	    1.05000	    0.94500;
	79	 1	 26.76	 2.37	 0.0	 0.0	 1	    0.99750	    0.00000	 230.0	 2	    1.05000	    0.94500;
	80	 1	 0.0	 0.0	 0.0	 0.0	 1	    0.99750	    0.00000	 500.0	 2	    1.05000	    0.94500;
	81	 1	 235.73	 11.19	 0.0	 0.0	 1	    0.99750	    0.00000	 230.0	 2	    1.05000	    0.94500;
	82	 1	 29.62	 1.61	 0.0	 0.0	 1	    0.99750	    0.00000	 35.0	 3	    1.05000	    0.94500;
	83	 1	 2.14	 -2.06	 0.0	 0.0	 1	    0.99750	    0.00000	 115.0	 3	    1.05000	    0.94500;
	84	 1	 21.01	 0.05	 0.0	 0.0	 1	    0.99750	    0.00000	 35.0	 3	    1.05000	    0.94500;
	85	 1	 4.04	 2.69	 0.0	 0.0	 1	    0.99750	    0.00000	 115.0	 3	    1.05000	    0.94500;
	86	 1	 58.66	 37.12	 0.0	 0.0	 1	    0.99750	    0.00000	 4.0	 3	    1.05000	    0.94500;
	87	 1	 25.42	 0.75	 0.0	 0.0	 1	    0.99750	    0.00000	 35.0	 3	    1.05000	    0.94500;
	88	 1	 48.53	 2.10	 0.0	 0.0	 1	    0.99750	    0.00000	 22.0	 3	    1.05000	    0.94500;
	89	 2	 0.0	 0.0	 0.0	 0.0	 1	    0.99750	    0.00000	 13.0	 3	    1.05000	    0.94500;
	90	 2	 3.59	 0.13	 0.0	 -4.777	 1	    0.99750	    0.00000	 115.0	 3	    1.05000	    0.94500;
	91	 1	 0.0	 0.0	 0.0	 0.0	 1	    0.99750	    0.00000	 230.0	 3	    1.05000	    0.94500;
	92	 1	 0.0	 0.0	 0.0	 33.9989875512	 1	    0.99750	    0.00000	 115.0	 3	    1.05000	    0.94500;
	93	 1	 9.72	 -2.82	 0.0	 0.0	 1	    0.99750	    0.00000	 13.0	 3	    1.05000	    0.94500;
	94	 1	 0.0	 0.0	 0.0	 0.0	 1	    0.99750	    0.00000	 230.0	 3	    1.05000	    0.94500;
	95	 1	 30.23	 1.95	 0.0	 0.0	 1	    0.99750	    0.00000	 35.0	 3	    1.05000	    0.94500;
	96	 1	 0.0	 0.0	 0.0	 0.0	 1	    0.99750	    0.00000	 115.0	 3	    1.05000	    0.94500;
	97	 1	 0.0	 0.0	 0.0	 0.0	 1	    0.99750	    0.00000	 230.0	 3	    1.05000	    0.94500;
	98	 1	 0.0	 0.0	 0.0	 0.0	 1	    0.99750	    0.00000	 230.0	 3	    1.05000	    0.94500;
	99	 1	 17.27	 3.19	 0.0	 0.0	 1	    0.99750	    0.00000	 35.0	 3	    1.05000	    0.94500;
	100	 1	 14.30	 -0.43	 0.0	 0.0	 1	    0.99750	    0.00000	 35.0	 3	    1.05000	    0.94500;
	101	 1	 1.42	 -0.05	 0.0	 0.0	 1	    0.99750	    0.00000	 115.0	 3	    1.05000	    0.94500;
	102	 1	 0.0	 0.0	 0.0	 0.0	 1	    0.99750	    0.00000	 20.0	 3	    1.05000	    0.94500;
	103	 1	 10.12	 2.17	 0.0	 0.0	 1	    0.99750	    0.00000	 35.0	 3	    1.05000	    0.94500;
	104	 1	 8.88	 -3.32	 0.0	 0.0	 1	    0.99750	    0.00000	 35.0	 3	    1.05000	    0.94500;
	105	 1	 29.18	 -1.89	 0.0	 0.0	 1	    0.99750	    0.00000	 35.0	 3	    1.05000	    0.94500;
	106	 1	 14.82	 1.48	 0.0	 0.0	 1	    0.99750	    0.00000	 35.0	 3	    1.05000	    0.94500;
	107	 1	 0.0	 0.0	 0.0	 0.0	 1	    0.99750	    0.00000	 115.0	 3	    1.05000	    0.94500;
	108	 1	 31.06	 4.45	 0.0	 0.0	 1	    0.99750	    0.00000	 35.0	 3	    1.05000	    0.94500;
	109	 1	 22.63	 4.85	 0.0	 0.0	 1	    0.99750	    0.00000	 230.0	 3	    1.05000	    0.94500;
	110	 1	 49.87	 19.14	 0.0	 0.0	 1	    0.99750	    0.00000	 115.0	 3	    1.05000	    0.94500;
	111	 1	 0.0	 0.0	 0.0	 0.0	 1	    0.99750	    0.00000	 500.0	 3	    1.05000	    0.94500;
	112	 1	 37.79	 0.23	 0.0	 0.0	 1	    0.99750	    0.00000	 35.0	 3	    1.05000	    0.94500;
	113	 1	 -1.34	 -0.61	 0.0	 0.0	 1	    0.99750	    0.00000	 7.0	 3	    1.05000	    0.94500;
	114	 1	 11.09	 4.78	 0.0	 0.0	 1	    0.99750	    0.00000	 13.0	 3	    1.05000	    0.94500;
	115	 1	 0.0	 0.0	 0.0	 0.0	 1	    0.99750	    0.00000	 115.0	 3	    1.05000	    0.94500;
	116	 1	 9.39	 -0.84	 0.0	 0.0	 1	    0.99750	    0.00000	 13.0	 3	    1.05000	    0.94500;
	117	 1	 2.96	 4.83	 0.0	 0.0	 1	    0.99750	    0.00000	 13.0	 3	    1.05000	    0.94500;
	118	 1	 0.0	 0.0	 0.0	 0.0	 1	    0.99750	    0.00000	 500.0	 3	    1.05000	    0.94500;
	119	 1	 0.0	 0.0	 0.0	 0.0	 1	    0.99750	    0.00000	 115.0	 3	    1.05000	    0.94500;
	120	 1	 4.31	 1.69	 0.0	 0.0	 1	    0.99750	    0.00000	 4.0	 3	    1.05000	    0.94500;
	121	 1	 0.0	 0.0	 0.0	 0.0	 1	    0.99750	    0.00000	 230.0	 3	    1.05000	    0.94500;
	122	 1	 52.39	 33.83	 0.0	 0.0	 1	    0.99750	    0.00000	 22.0	 3	    1.05000	    0.94500;
	123	 1	 15.06	 -2.13	 0.0	 0.0	 1	    0.99750	    0.00000	 13.0	 3	    1.05000	    0.94500;
	124	 1	 0.0	 0.0	 0.0	 0.0	 1	    0.99750	    0.00000	 230.0	 3	    1.05000	    0.94500;
	125	 1	 0.0	 0.0	 0.0	 24.3999520148	 1	    0.99750	    0.00000	 115.0	 3	    1.05000	    0.94500;
	126	 1	 19.64	 26.54	 0.0	 0.0	 1	    0.99750	    0.00000	 115.0	 3	    1.05000	    0.94500;
	127	 1	 12.16	 0.13	 0.0	 0.0	 1	    0.99750	    0.00000	 13.0	 3	    1.05000	    0.94500;
	128	 1	 0.0	 0.0	 0.0	 0.0	 1	    0.99750	    0.00000	 14.0	 3	    1.05000	    0.94500;
	129	 2	 7.80	 3.38	 0.0	 -8.836	 1	    0.99750	    0.00000	 115.0	 3	    1.05000	    0.94500;
	130	 1	 755.83	 75.91	 0.0	 0.0	 1	    0.99750	    0.00000	 500.0	 3	    1.05000	    0.94500;
	131	 1	 63.66	 6.43	 0.0	 0.0	 1	    0.99750	    0.00000	 22.0	 3	    1.05000	    0.94500;
	132	 1	 0.0	 0.0	 0.0	 0.0	 1	    0.99750	    0.00000	 230.0	 3	    1.05000	    0.94500;
	133	 1	 15.56	 0.70	 0.0	 0.0	 1	    0.99750	    0.00000	 22.0	 3	    1.05000	    0.94500;
	134	 1	 0.0	 0.0	 0.0	 0.0	 1	    0.99750	    0.00000	 115.0	 3	    1.05000	    0.94500;
	135	 1	 9.12	 -0.83	 0.0	 0.0	 1	    0.99750	    0.00000	 35.0	 3	    1.05000	    0.94500;
	136	 1	 0.0	 0.0	 0.0	 0.0	 1	    0.99750	    0.00000	 230.0	 3	    1.05000	    0.94500;
	137	 1	 0.0	 0.0	 0.0	 0.0	 1	    0.99750	    0.00000	 14.0	 3	    1.05000	    0.94500;
	138	 1	 7.89	 -3.77	 0.0	 0.0	 1	    0.99750	    0.00000	 13.0	 3	    1.05000	    0.94500;
	139	 1	 16.56	 -0.29	 0.0	 0.0	 1	    0.99750	    0.00000	 35.0	 3	    1.05000	    0.94500;
	140	 1	 0.0	 0.0	 0.0	 0.0	 1	    0.99750	    0.00000	 20.0	 3	    1.05000	    0.94500;
	141	 1	 0.0	 0.0	 0.0	 0.0	 1	    0.99750	    0.00000	 230.0	 3	    1.05000	    0.94500;
	142	 1	 0.0	 0.0	 0.0	 0.0	 1	    0.99750	    0.00000	 230.0	 3	    1.05000	    0.94500;
	143	 1	 15.19	 8.18	 0.0	 0.0	 1	    0.99750	    0.00000	 4.0	 3	    1.05000	    0.94500;
	144	 1	 8.19	 0.59	 0.0	 0.0	 1	    0.99750	    0.00000	 35.0	 3	    1.05000	    0.94500;
	145	 1	 0.0	 0.0	 0.0	 0.0	 1	    0.99750	    0.00000	 14.0	 3	    1.05000	    0.94500;
	146	 2	 0.0	 0.0	 0.0	 -76.414	 1	    0.99750	    0.00000	 500.0	 3	    1.05000	    0.94500;
	147	 1	 0.0	 0.0	 0.0	 0.0	 1	    0.99750	    0.00000	 230.0	 3	    1.05000	    0.94500;
	148	 1	 0.0	 0.0	 0.0	 0.0	 1	    0.99750	    0.00000	 230.0	 3	    1.05000	    0.94500;
	149	 1	 13.30	 1.72	 0.0	 0.0	 1	    0.99750	    0.00000	 13.0	 3	    1.05000	    0.94500;
	150	 1	 0.0	 0.0	 0.0	 5.02090361698	 1	    0.99750	    0.00000	 115.0	 3	    1.05000	    0.94500;
	151	 1	 0.0	 0.0	 0.0	 0.0	 1	    0.99750	    0.00000	 230.0	 3	    1.05000	    0.94500;
	152	 1	 0.0	 0.0	 0.0	 0.0	 1	    0.99750	    0.00000	 230.0	 3	    1.05000	    0.94500;
	153	 1	 16.98	 -3.33	 0.0	 0.0	 1	    0.99750	    0.00000	 35.0	 3	    1.05000	    0.94500;
	154	 1	 26.37	 0.36	 0.0	 0.0	 1	    0.99750	    0.00000	 35.0	 3	    1.05000	    0.94500;
	155	 1	 0.0	 0.0	 0.0	 0.0	 1	    0.99750	    0.00000	 230.0	 3	    1.05000	    0.94500;
	156	 1	 0.0	 0.0	 0.0	 0.0	 1	    0.99750	    0.00000	 500.0	 3	    1.05000	    0.94500;
	157	 1	 3.98	 -2.08	 0.0	 0.0	 1	    0.99750	    0.00000	 35.0	 3	    1.05000	    0.94500;
	158	 1	 16.80	 1.46	 0.0	 0.0	 1	    0.99750	    0.00000	 35.0	 3	    1.05000	    0.94500;
	159	 1	 4.81	 2.18	 0.0	 0.0	 1	    0.99750	    0.00000	 36.5	 3	    1.05000	    0.94500;
	160	 1	 13.85	 1.66	 0.0	 0.0	 1	    0.99750	    0.00000	 34.5	 3	    1.05000	    0.94500;
	161	 1	 18.18	 2.96	 0.0	 0.0	 1	    0.99750	    0.00000	 35.0	 3	    1.05000	    0.94500;
	162	 1	 10.79	 1.04	 0.0	 0.0	 1	    0.99750	    0.00000	 13.0	 3	    1.05000	    0.94500;
	163	 2	 30.62	 54.44	 0.0	 0.0	 1	    0.99750	    0.00000	 13.0	 3	    1.05000	    0.94500;
	164	 1	 0.0	 0.0	 0.0	 0.0	 1	    0.99750	    0.00000	 115.0	 3	    1.05000	    0.94500;
	165	 1	 0.0	 0.0	 0.0	 0.0	 1	    0.99750	    0.00000	 500.0	 3	    1.05000	    0.94500;
	166	 1	 0.0	 0.0	 0.0	 0.0	 1	    0.99750	    0.00000	 500.0	 3	    1.05000	    0.94500;
	167	 1	 0.0	 0.0	 0.0	 0.0	 1	    0.99750	    0.00000	 230.0	 3	    1.05000	    0.94500;
	168	 1	 0.0	 0.0	 0.0	 0.0	 1	    0.99750	    0.00000	 230.0	 3	    1.05000	    0.94500;
	169	 1	 29.65	 -0.86	 0.0	 0.0	 1	    0.99750	    0.00000	 35.0	 3	    1.05000	    0.94500;
	170	 1	 15.59	 -6.31	 0.0	 0.0	 1	    0.99750	    0.00000	 230.0	 3	    1.05000	    0.94500;
	171	 1	 35.90	 7.83	 0.0	 0.0	 1	    0.99750	    0.00000	 35.0	 3	    1.05000	    0.94500;
	172	 1	 0.0	 0.0	 0.0	 0.0	 1	    0.99750	    0.00000	 115.0	 3	    1.05000	    0.94500;
	173	 1	 0.0	 0.0	 0.0	 0.0	 1	    0.99750	    0.00000	 230.0	 3	    1.05000	    0.94500;
	174	 1	 17.98	 2.35	 0.0	 0.0	 1	    0.99750	    0.00000	 13.0	 3	    1.05000	    0.94500;
	175	 1	 0.0	 0.0	 0.0	 0.0	 1	    0.99750	    0.00000	 230.0	 3	    1.05000	    0.94500;
	176	 1	 14.12	 1.01	 0.0	 0.0	 1	    0.99750	    0.00000	 35.0	 3	    1.05000	    0.94500;
	177	 1	 0.0	 0.0	 0.0	 0.0	 1	    0.99750	    0.00000	 230.0	 3	    1.05000	    0.94500;
	178	 1	 11.18	 5.56	 0.0	 0.0	 1	    0.99750	    0.00000	 35.0	 3	    1.05000	    0.94500;
	179	 1	 12.78	 -0.36	 0.0	 0.0	 1	    0.99750	    0.00000	 35.0	 3	    1.05000	    0.94500;
	180	 1	 19.49	 -1.75	 0.0	 0.0	 1	    0.99750	    0.00000	 35.0	 3	    1.05000	    0.94500;
	181	 1	 0.0	 0.0	 0.0	 0.0	 1	    0.99750	    0.00000	 230.0	 3	    1.05000	    0.94500;
	182	 1	 0.0	 0.0	 0.0	 0.0	 1	    0.99750	    0.00000	 115.0	 3	    1.05000	    0.94500;
	183	 2	 136.78	 10.99	 0.0	 0.0	 1	    0.99750	    0.00000	 230.0	 3	    1.05000	    0.94500;
	184	 1	 0.0	 0.0	 0.0	 0.0	 1	    0.99750	    0.00000	 500.0	 3	    1.05000	    0.94500;
	185	 1	 0.0	 0.0	 0.0	 0.0	 1	    0.99750	    0.00000	 230.0	 3	    1.05000	    0.94500;
	186	 1	 17.71	 1.35	 0.0	 0.0	 1	    0.99750	    0.00000	 35.0	 3	    1.05000	    0.94500;
	187	 1	 0.0	 0.0	 0.0	 0.0	 1	    0.99750	    0.00000	 230.0	 3	    1.05000	    0.94500;
	188	 1	 0.0	 0.0	 0.0	 0.0	 1	    0.99750	    0.00000	 115.0	 3	    1.05000	    0.94500;
	189	 2	 65.06	 0.01	 0.0	 0.0	 1	    0.99750	    0.00000	 35.0	 3	    1.05000	    0.94500;
	190	 1	 5.36	 -2.52	 0.0	 0.0	 1	    0.99750	    0.00000	 13.0	 3	    1.05000	    0.94500;
	191	 1	 7.60	 -1.98	 0.0	 0.0	 1	    0.99750	    0.00000	 13.0	 3	    1.05000	    0.94500;
	192	 1	 5.86	 0.93	 0.0	 0.0	 1	    0.99750	    0.00000	 13.0	 3	    1.05000	    0.94500;
	193	 1	 0.0	 0.0	 0.0	 0.0	 1	    0.99750	    0.00000	 14.0	 3	    1.05000	    0.94500;
	194	 2	 0.0	 0.0	 0.0	 0.0	 1	    0.99750	    0.00000	 13.0	 3	    1.05000	    0.94500;
	195	 1	 11.22	 -1.32	 0.0	 0.0	 1	    0.99750	    0.00000	 35.0	 3	    1.05000	    0.94500;
	196	 1	 7.53	 3.83	 0.0	 0.0	 1	    0.99750	    0.00000	 13.0	 3	    1.05000	    0.94500;
	197	 1	 29.99	 1.28	 0.0	 0.0	 1	    0.99750	    0.00000	 35.0	 3	    1.05000	    0.94500;
	198	 1	 0.0	 0.0	 0.0	 0.0	 1	    0.99750	    0.00000	 115.0	 3	    1.05000	    0.94500;
	199	 1	 0.0	 0.0	 0.0	 0.0	 1	    0.99750	    0.00000	 115.0	 3	    1.05000	    0.94500;
	200	 1	 10.12	 0.09	 0.0	 0.00996251223203	 1	    0.99750	    0.00000	 13.2	 3	    1.05000	    0.94500;
	201	 1	 27.66	 5.60	 0.0	 0.0	 1	    0.99750	    0.00000	 22.0	 3	    1.05000	    0.94500;
	202	 1	 16.63	 1.83	 0.0	 0.0	 1	    0.99750	    0.00000	 35.0	 3	    1.05000	    0.94500;
	203	 1	 1.81	 0.75	 0.0	 0.0	 1	    0.99750	    0.00000	 4.0	 3	    1.05000	    0.94500;
	204	 1	 0.0	 0.0	 0.0	 0.0	 1	    0.99750	    0.00000	 115.0	 3	    1.05000	    0.94500;
	205	 1	 12.21	 -5.91	 0.0	 0.0	 1	    0.99750	    0.00000	 13.0	 3	    1.05000	    0.94500;
	206	 1	 48.80	 20.64	 0.0	 0.0	 1	    0.99750	    0.00000	 115.0	 3	    1.05000	    0.94500;
	207	 1	 14.91	 2.91	 0.0	 0.0	 1	    0.99750	    0.00000	 35.0	 3	    1.05000	    0.94500;
	208	 1	 0.0	 0.0	 0.0	 0.0	 1	    0.99750	    0.00000	 230.0	 3	    1.05000	    0.94500;
	209	 1	 28.27	 10.23	 0.0	 0.0	 1	    0.99750	    0.00000	 230.0	 3	    1.05000	    0.94500;
	210	 1	 6.94	 -0.66	 0.0	 0.0	 1	    0.99750	    0.00000	 35.0	 3	    1.05000	    0.94500;
	211	 1	 0.0	 0.0	 0.0	 0.0	 1	    0.99750	    0.00000	 115.0	 3	    1.05000	    0.94500;
	212	 1	 0.0	 0.0	 0.0	 0.0	 1	    0.99750	    0.00000	 500.0	 3	    1.05000	    0.94500;
	213	 1	 0.0	 0.0	 0.0	 0.0	 1	    0.99750	    0.00000	 115.0	 3	    1.05000	    0.94500;
	214	 1	 5.92	 1.83	 0.0	 0.0	 1	    0.99750	    0.00000	 115.0	 3	    1.05000	    0.94500;
	215	 1	 0.0	 0.0	 0.0	 0.0	 1	    0.99750	    0.00000	 230.0	 3	    1.05000	    0.94500;
	216	 1	 3.03	 4.33	 0.0	 0.0	 1	    0.99750	    0.00000	 35.0	 3	    1.05000	    0.94500;
	217	 1	 18.32	 -3.31	 0.0	 0.0	 1	    0.99750	    0.00000	 35.0	 3	    1.05000	    0.94500;
	218	 1	 0.0	 0.0	 0.0	 0.0	 1	    0.99750	    0.00000	 230.0	 3	    1.05000	    0.94500;
	219	 2	 0.0	 0.0	 0.0	 0.0	 1	    0.99750	    0.00000	 500.0	 3	    1.05000	    0.94500;
	220	 1	 8.27	 -1.06	 0.0	 0.0	 1	    0.99750	    0.00000	 35.0	 3	    1.05000	    0.94500;
	221	 1	 12.42	 4.83	 0.0	 0.0	 1	    0.99750	    0.00000	 13.0	 3	    1.05000	    0.94500;
	222	 1	 15.09	 -0.23	 0.0	 0.0	 1	    0.99750	    0.00000	 35.0	 3	    1.05000	    0.94500;
	223	 1	 0.0	 0.0	 0.0	 0.0	 1	    0.99750	    0.00000	 22.0	 3	    1.05000	    0.94500;
	224	 1	 21.19	 3.22	 0.0	 0.000258921870665	 1	    0.99750	    0.00000	 35.0	 3	    1.05000	    0.94500;
	225	 1	 11.29	 4.66	 0.0	 0.0	 1	    0.99750	    0.00000	 22.0	 3	    1.05000	    0.94500;
	226	 1	 0.0	 0.0	 0.0	 0.0	 1	    0.99750	    0.00000	 230.0	 3	    1.05000	    0.94500;
	227	 2	 0.0	 0.0	 0.0	 0.0	 1	    0.99750	    0.00000	 13.0	 3	    1.05000	    0.94500;
	228	 1	 0.0	 0.0	 0.0	 0.0	 1	    0.99750	    0.00000	 115.0	 3	    1.05000	    0.94500;
	229	 1	 0.0	 0.0	 0.0	 0.0	 1	    0.99750	    0.00000	 115.0	 3	    1.05000	    0.94500;
	230	 1	 53.39	 9.10	 0.0	 0.0	 1	    0.99750	    0.00000	 35.0	 3	    1.05000	    0.94500;
	231	 1	 29.57	 1.61	 0.0	 0.0	 1	    0.99750	    0.00000	 35.0	 3	    1.05000	    0.94500;
	232	 1	 10.64	 -0.37	 0.0	 0.0	 1	    0.99750	    0.00000	 35.0	 3	    1.05000	    0.94500;
	233	 1	 0.0	 0.0	 0.0	 0.0	 1	    0.99750	    0.00000	 115.0	 3	    1.05000	    0.94500;
	234	 1	 15.01	 -4.54	 0.0	 0.0	 1	    0.99750	    0.00000	 35.0	 3	    1.05000	    0.94500;
	235	 1	 6.74	 1.24	 0.0	 0.0	 1	    0.99750	    0.00000	 13.0	 3	    1.05000	    0.94500;
	236	 1	 0.0	 0.0	 0.0	 0.0	 1	    0.99750	    0.00000	 115.0	 3	    1.05000	    0.94500;
	237	 1	 8.74	 2.10	 0.0	 0.0	 1	    0.99750	    0.00000	 115.0	 3	    1.05000	    0.94500;
	238	 2	 34.02	 14.72	 0.0	 0.0	 1	    0.99750	    0.00000	 22.0	 3	    1.05000	    0.94500;
	239	 1	 9.52	 1.58	 0.0	 0.0	 1	    0.99750	    0.00000	 35.0	 3	    1.05000	    0.94500;
	240	 1	 38.69	 17.69	 0.0	 0.0	 1	    0.99750	    0.00000	 35.0	 3	    1.05000	    0.94500;
	241	 1	 2.16	 0.27	 0.0	 0.0	 1	    0.99750	    0.00000	 13.0	 3	    1.05000	    0.94500;
	242	 1	 0.0	 0.0	 0.0	 0.0	 1	    0.99750	    0.00000	 230.0	 3	    1.05000	    0.94500;
	243	 1	 2.60	 -0.43	 0.0	 0.0	 1	    0.99750	    0.00000	 35.0	 3	    1.05000	    0.94500;
	244	 1	 0.0	 0.0	 0.0	 0.0	 1	    0.99750	    0.00000	 115.0	 3	    1.05000	    0.94500;
	245	 1	 58.75	 5.03	 0.0	 0.0	 1	    0.99750	    0.00000	 35.0	 3	    1.05000	    0.94500;
	246	 1	 45.16	 1.02	 0.0	 0.0	 1	    0.99750	    0.00000	 115.0	 3	    1.05000	    0.94500;
	247	 1	 28.46	 3.47	 0.0	 0.0	 1	    0.99750	    0.00000	 35.0	 3	    1.05000	    0.94500;
	248	 1	 5.40	 -3.11	 0.0	 0.0	 1	    0.99750	    0.00000	 13.0	 3	    1.05000	    0.94500;
	249	 1	 19.82	 3.13	 0.0	 0.0	 1	    0.99750	    0.00000	 35.0	 3	    1.05000	    0.94500;
	250	 1	 11.49	 -6.62	 0.0	 0.0	 1	    0.99750	    0.00000	 13.0	 3	    1.05000	    0.94500;
	251	 1	 15.02	 8.95	 0.0	 0.0	 1	    0.99750	    0.00000	 4.0	 3	    1.05000	    0.94500;
	252	 1	 0.0	 0.0	 0.0	 0.0	 1	    0.99750	    0.00000	 115.0	 3	    1.05000	    0.94500;
	253	 1	 8.06	 2.13	 0.0	 0.0	 1	    0.99750	    0.00000	 13.0	 3	    1.05000	    0.94500;
	254	 1	 43.90	 14.99	 0.0	 15.5642046177	 1	    0.99750	    0.00000	 500.0	 3	    1.05000	    0.94500;
	255	 1	 0.0	 0.0	 0.0	 0.0	 1	    0.99750	    0.00000	 230.0	 3	    1.05000	    0.94500;
	256	 1	 6.35	 -9.53	 0.0	 -10.593	 1	    0.99750	    0.00000	 115.0	 3	    1.05000	    0.94500;
	257	 1	 19.56	 -3.75	 0.0	 0.0	 1	    0.99750	    0.00000	 35.0	 3	    1.05000	    0.94500;
	258	 1	 10.42	 0.91	 0.0	 0.0	 1	    0.99750	    0.00000	 13.0	 3	    1.05000	    0.94500;
	259	 1	 6.90	 0.34	 0.0	 0.0	 1	    0.99750	    0.00000	 13.0	 3	    1.05000	    0.94500;
	260	 1	 18.25	 3.17	 0.0	 0.0	 1	    0.99750	    0.00000	 35.0	 3	    1.05000	    0.94500;
	261	 1	 0.0	 0.0	 0.0	 0.0	 1	    0.99750	    0.00000	 115.0	 3	    1.05000	    0.94500;
	262	 1	 0.0	 0.0	 0.0	 0.0	 1	    0.99750	    0.00000	 230.0	 3	    1.05000	    0.94500;
	263	 1	 0.0	 0.0	 0.0	 0.0	 1	    0.99750	    0.00000	 18.0	 3	    1.05000	    0.94500;
	264	 1	 0.0	 0.0	 0.0	 0.0	 1	    0.99750	    0.00000	 230.0	 3	    1.05000	    0.94500;
	265	 1	 0.0	 0.0	 0.0	 0.0	 1	    0.99750	    0.00000	 500.0	 3	    1.05000	    0.94500;
	266	 1	 86.59	 21.56	 0.0	 0.0	 1	    0.99750	    0.00000	 230.0	 3	    1.05000	    0.94500;
	267	 1	 9.52	 1.54	 0.0	 0.0	 1	    0.99750	    0.00000	 35.0	 3	    1.05000	    0.94500;
	268	 1	 0.0	 0.0	 0.0	 0.0	 1	    0.99750	    0.00000	 230.0	 3	    1.05000	    0.94500;
	269	 1	 0.0	 0.0	 0.0	 111.031344834	 1	    0.99750	    0.00000	 230.0	 3	    1.05000	    0.94500;
	270	 1	 7.84	 -2.77	 0.0	 0.0	 1	    0.99750	    0.00000	 35.0	 3	    1.05000	    0.94500;
	271	 1	 0.0	 0.0	 0.0	 0.0	 1	    0.99750	    0.00000	 230.0	 3	    1.05000	    0.94500;
	272	 1	 110.82	 21.16	 0.0	 0.0	 1	    0.99750	    0.00000	 115.0	 3	    1.05000	    0.94500;
	273	 1	 11.90	 5.12	 0.0	 0.0	 1	    0.99750	    0.00000	 4.0	 3	    1.05000	    0.94500;
	274	 1	 15.01	 -4.53	 0.0	 0.0	 1	    0.99750	    0.00000	 35.0	 3	    1.05000	    0.94500;
	275	 1	 32.00	 0.69	 0.0	 0.0	 1	    0.99750	    0.00000	 13.2	 3	    1.05000	    0.94500;
	276	 1	 14.08	 -3.33	 0.0	 0.0	 1	    0.99750	    0.00000	 35.0	 3	    1.05000	    0.94500;
	277	 1	 0.0	 0.0	 0.0	 0.0	 1	    0.99750	    0.00000	 230.0	 3	    1.05000	    0.94500;
	278	 1	 16.92	 2.38	 0.0	 0.0	 1	    0.99750	    0.00000	 35.0	 3	    1.05000	    0.94500;
	279	 1	 0.0	 0.0	 0.0	 0.0	 1	    0.99750	    0.00000	 115.0	 3	    1.05000	    0.94500;
	280	 1	 0.0	 0.0	 0.0	 0.0	 1	    0.99750	    0.00000	 230.0	 3	    1.05000	    0.94500;
	281	 1	 105.48	 96.08	 0.0	 0.0	 1	    0.99750	    0.00000	 230.0	 3	    1.05000	    0.94500;
	282	 2	 1.47	 0.89	 0.0	 0.0	 1	    0.99750	    0.00000	 13.0	 3	    1.05000	    0.94500;
	283	 1	 28.37	 14.52	 0.0	 0.0	 1	    0.99750	    0.00000	 115.0	 3	    1.05000	    0.94500;
	284	 1	 0.0	 0.0	 0.0	 0.0	 1	    0.99750	    0.00000	 230.0	 3	    1.05000	    0.94500;
	285	 1	 0.0	 0.0	 0.0	 163.9781935	 1	    0.99750	    0.00000	 230.0	 3	    1.05000	    0.94500;
	286	 1	 21.20	 1.42	 0.0	 0.0	 1	    0.99750	    0.00000	 22.0	 3	    1.05000	    0.94500;
	287	 1	 0.0	 0.0	 0.0	 0.0	 1	    0.99750	    0.00000	 115.0	 3	    1.05000	    0.94500;
	288	 1	 32.62	 2.94	 0.0	 0.0	 1	    0.99750	    0.00000	 35.0	 3	    1.05000	    0.94500;
	289	 1	 16.81	 -1.12	 0.0	 0.0	 1	    0.99750	    0.00000	 35.0	 3	    1.05000	    0.94500;
	290	 1	 5.28	 1.84	 0.0	 0.0	 1	    0.99750	    0.00000	 4.0	 3	    1.05000	    0.94500;
	291	 1	 1.54	 5.50	 0.0	 0.0	 1	    0.99750	    0.00000	 35.0	 3	    1.05000	    0.94500;
	292	 1	 17.27	 1.11	 0.0	 0.0	 1	    0.99750	    0.00000	 35.0	 3	    1.05000	    0.94500;
	293	 1	 27.70	 -6.29	 0.0	 0.0	 1	    0.99750	    0.00000	 35.0	 3	    1.05000	    0.94500;
	294	 1	 0.0	 0.0	 0.0	 0.0	 1	    0.99750	    0.00000	 115.0	 3	    1.05000	    0.94500;
	295	 1	 0.0	 0.0	 0.0	 0.0	 1	    0.99750	    0.00000	 115.0	 3	    1.05000	    0.94500;
	296	 1	 31.10	 0.16	 0.0	 0.0	 1	    0.99750	    0.00000	 35.0	 3	    1.05000	    0.94500;
	297	 1	 18.31	 3.34	 0.0	 0.0	 1	    0.99750	    0.00000	 35.0	 3	    1.05000	    0.94500;
	298	 1	 0.0	 0.0	 0.0	 0.0	 1	    0.99750	    0.00000	 18.0	 3	    1.05000	    0.94500;
	299	 1	 5.73	 2.37	 0.0	 0.0	 1	    0.99750	    0.00000	 13.0	 3	    1.05000	    0.94500;
	300	 1	 0.0	 0.0	 0.0	 0.0	 1	    0.99750	    0.00000	 115.0	 3	    1.05000	    0.94500;
	301	 1	 27.78	 2.50	 0.0	 0.0	 1	    0.99750	    0.00000	 35.0	 3	    1.05000	    0.94500;
	302	 1	 0.0	 0.0	 0.0	 0.0	 1	    0.99750	    0.00000	 230.0	 3	    1.05000	    0.94500;
	303	 1	 27.98	 -2.27	 0.0	 0.0	 1	    0.99750	    0.00000	 35.0	 3	    1.05000	    0.94500;
	304	 1	 17.85	 5.20	 0.0	 0.000191505260198	 1	    0.99750	    0.00000	 13.0	 3	    1.05000	    0.94500;
	305	 1	 8.11	 -1.21	 0.0	 0.0	 1	    0.99750	    0.00000	 13.0	 3	    1.05000	    0.94500;
	306	 1	 0.0	 0.0	 0.0	 0.0	 1	    0.99750	    0.00000	 500.0	 3	    1.05000	    0.94500;
	307	 1	 0.0	 0.0	 0.0	 0.0	 1	    0.99750	    0.00000	 115.0	 3	    1.05000	    0.94500;
	308	 1	 2.26	 1.81	 0.0	 0.0	 1	    0.99750	    0.00000	 13.0	 3	    1.05000	    0.94500;
	309	 1	 0.0	 0.0	 0.0	 0.0	 1	    0.99750	    0.00000	 230.0	 3	    1.05000	    0.94500;
	310	 1	 0.0	 0.0	 0.0	 0.0	 1	    0.99750	    0.00000	 230.0	 3	    1.05000	    0.94500;
	311	 1	 7.57	 -2.82	 0.0	 0.0	 1	    0.99750	    0.00000	 13.0	 3	    1.05000	    0.94500;
	312	 1	 36.00	 3.77	 0.0	 0.0	 1	    0.99750	    0.00000	 35.0	 3	    1.05000	    0.94500;
	313	 1	 13.19	 8.77	 0.0	 0.0	 1	    0.99750	    0.00000	 115.0	 3	    1.05000	    0.94500;
	314	 1	 0.0	 0.0	 0.0	 0.0	 1	    0.99750	    0.00000	 115.0	 3	    1.05000	    0.94500;
	315	 1	 11.02	 44.76	 0.0	 0.0	 1	    0.99750	    0.00000	 1.0	 3	    1.05000	    0.94500;