%%%%%%%%%%%%%%%%%%%%%%%%%%%%%%%%%%%%%%%%%%%%%%%%%%%%%%%%%%%%%%%%%%%%%%%%%%%
%%%%                                                                  %%%%%
%%%%    IEEE PES Power Grid Library - Optimal Power Flow - v23.07     %%%%%
%%%%          (https://github.com/power-grid-lib/pglib-opf)           %%%%%
%%%%             Benchmark Group - Active Power Increase              %%%%%
%%%%                         23 - July - 2023                         %%%%%
%%%%                                                                  %%%%%
%%%%%%%%%%%%%%%%%%%%%%%%%%%%%%%%%%%%%%%%%%%%%%%%%%%%%%%%%%%%%%%%%%%%%%%%%%%
function mpc = pglib_opf_case2312_goc__api
mpc.version = '2';
mpc.baseMVA = 100.0;

%% bus data
%	bus_i	type	Pd	Qd	Gs	Bs	area	Vm	Va	baseKV	zone	Vmax	Vmin
mpc.bus = [
	1	 1	 0.0	 0.0	 0.0	 0.0	 1	    1.00000	    0.00000	 345.0	 1	    1.10000	    0.90000;
	2	 1	 7.19	 -4.07	 0.0	 -7.133	 1	    1.00000	    0.00000	 345.0	 1	    1.10000	    0.90000;
	3	 1	 2.13	 1.05	 0.0	 0.0	 1	    1.00000	    0.00000	 345.0	 1	    1.10000	    0.90000;
	4	 1	 14.72	 -5.34	 0.0	 -9.601	 1	    1.00000	    0.00000	 345.0	 1	    1.10000	    0.90000;
	5	 1	 0.0	 0.0	 0.0	 0.0	 1	    1.00000	    0.00000	 345.0	 1	    1.10000	    0.90000;
	6	 1	 60.91	 22.63	 0.0	 41.987	 1	    1.00000	    0.00000	 345.0	 1	    1.10000	    0.90000;
	7	 1	 0.0	 0.0	 0.0	 0.0	 1	    1.00000	    0.00000	 345.0	 1	    1.10000	    0.90000;
	8	 1	 0.0	 0.0	 0.0	 0.0	 1	    1.00000	    0.00000	 345.0	 1	    1.10000	    0.90000;
	9	 1	 121.25	 -56.79	 0.0	 0.0	 1	    1.00000	    0.00000	 345.0	 1	    1.10000	    0.90000;
	10	 1	 31.80	 40.01	 0.0	 0.0	 1	    1.00000	    0.00000	 345.0	 1	    1.10000	    0.90000;
	11	 1	 9.58	 4.12	 0.0	 0.0	 1	    1.00000	    0.00000	 138.0	 1	    1.10000	    0.90000;
	12	 1	 16.08	 5.86	 0.0	 0.0	 1	    1.00000	    0.00000	 138.0	 1	    1.10000	    0.90000;
	13	 1	 4.85	 1.36	 0.0	 0.0	 1	    1.00000	    0.00000	 138.0	 1	    1.10000	    0.90000;
	14	 1	 15.66	 4.30	 0.0	 0.0	 1	    1.00000	    0.00000	 138.0	 1	    1.10000	    0.90000;
	15	 1	 0.33	 0.06	 0.0	 0.0	 1	    1.00000	    0.00000	 138.0	 1	    1.10000	    0.90000;
	16	 1	 0.0	 0.0	 0.0	 0.0	 1	    1.00000	    0.00000	 138.0	 1	    1.10000	    0.90000;
	17	 1	 8.18	 2.53	 0.0	 0.0	 1	    1.00000	    0.00000	 138.0	 1	    1.10000	    0.90000;
	18	 1	 1.88	 0.44	 0.0	 0.0	 1	    1.00000	    0.00000	 138.0	 1	    1.10000	    0.90000;
	19	 1	 1.15	 0.27	 0.0	 0.0	 1	    1.00000	    0.00000	 138.0	 1	    1.10000	    0.90000;
	20	 1	 11.26	 -19.50	 0.0	 0.0	 1	    1.00000	    0.00000	 138.0	 1	    1.10000	    0.90000;
	21	 1	 11.16	 1.70	 0.0	 0.0	 1	    1.00000	    0.00000	 138.0	 1	    1.10000	    0.90000;
	22	 1	 0.0	 0.0	 0.0	 0.0	 1	    1.00000	    0.00000	 138.0	 1	    1.10000	    0.90000;
	23	 1	 23.29	 -7.05	 0.0	 0.0	 1	    1.00000	    0.00000	 138.0	 1	    1.10000	    0.90000;
	24	 2	 6.54	 2.75	 0.0	 0.0	 1	    1.00000	    0.00000	 138.0	 1	    1.10000	    0.90000;
	25	 1	 0.00	 -0.22	 0.0	 0.0	 1	    1.00000	    0.00000	 138.0	 1	    1.10000	    0.90000;
	26	 1	 27.12	 6.91	 0.0	 0.0	 1	    1.00000	    0.00000	 138.0	 1	    1.10000	    0.90000;
	27	 1	 3.44	 0.82	 0.0	 0.0	 1	    1.00000	    0.00000	 138.0	 1	    1.10000	    0.90000;
	28	 1	 0.0	 0.0	 0.0	 0.0	 1	    1.00000	    0.00000	 138.0	 1	    1.10000	    0.90000;
	29	 1	 7.28	 2.03	 0.0	 0.0	 1	    1.00000	    0.00000	 138.0	 1	    1.10000	    0.90000;
	30	 1	 0.0	 0.0	 0.0	 0.0	 1	    1.00000	    0.00000	 138.0	 1	    1.10000	    0.90000;
	31	 1	 3.76	 0.94	 0.0	 0.0	 1	    1.00000	    0.00000	 138.0	 1	    1.10000	    0.90000;
	32	 1	 5.40	 1.92	 0.0	 -1.306	 1	    1.00000	    0.00000	 138.0	 1	    1.10000	    0.90000;
	33	 1	 5.40	 2.53	 0.0	 0.0	 1	    1.00000	    0.00000	 138.0	 1	    1.10000	    0.90000;
	34	 1	 0.0	 0.0	 0.0	 0.0	 1	    1.00000	    0.00000	 138.0	 1	    1.10000	    0.90000;
	35	 1	 1.23	 0.27	 0.0	 0.0	 1	    1.00000	    0.00000	 138.0	 1	    1.10000	    0.90000;
	36	 1	 0.0	 0.0	 0.0	 0.0	 1	    1.00000	    0.00000	 138.0	 1	    1.10000	    0.90000;
	37	 1	 0.0	 0.0	 0.0	 0.0	 1	    1.00000	    0.00000	 138.0	 1	    1.10000	    0.90000;
	38	 1	 0.0	 0.0	 0.0	 0.0	 1	    1.00000	    0.00000	 138.0	 1	    1.10000	    0.90000;
	39	 1	 9.30	 -0.00	 0.0	 -0.488	 1	    1.00000	    0.00000	 138.0	 1	    1.10000	    0.90000;
	40	 1	 0.0	 0.0	 0.0	 0.0	 1	    1.00000	    0.00000	 138.0	 1	    1.10000	    0.90000;
	41	 1	 1.31	 0.33	 0.0	 0.0	 1	    1.00000	    0.00000	 138.0	 1	    1.10000	    0.90000;
	42	 1	 4.66	 0.49	 0.0	 0.0	 1	    1.00000	    0.00000	 138.0	 1	    1.10000	    0.90000;
	43	 1	 10.97	 2.12	 0.0	 3.712	 1	    1.00000	    0.00000	 138.0	 1	    1.10000	    0.90000;
	44	 1	 12.14	 4.55	 0.0	 0.0	 1	    1.00000	    0.00000	 138.0	 1	    1.10000	    0.90000;
	45	 1	 3.79	 1.25	 0.0	 0.0	 1	    1.00000	    0.00000	 138.0	 1	    1.10000	    0.90000;
	46	 2	 28.48	 8.55	 0.0	 0.0	 1	    1.00000	    0.00000	 138.0	 1	    1.10000	    0.90000;
	47	 1	 8.97	 2.30	 0.0	 0.0	 1	    1.00000	    0.00000	 138.0	 1	    1.10000	    0.90000;
	48	 1	 0.00	 0.08	 0.0	 0.0	 1	    1.00000	    0.00000	 138.0	 1	    1.10000	    0.90000;
	49	 1	 31.73	 0.07	 0.0	 -4.149	 1	    1.00000	    0.00000	 138.0	 1	    1.10000	    0.90000;
	50	 1	 0.0	 0.0	 0.0	 0.0	 1	    1.00000	    0.00000	 138.0	 1	    1.10000	    0.90000;
	51	 1	 0.0	 0.0	 0.0	 0.0	 1	    1.00000	    0.00000	 138.0	 1	    1.10000	    0.90000;
	52	 1	 14.24	 3.24	 0.0	 0.0	 1	    1.00000	    0.00000	 138.0	 1	    1.10000	    0.90000;
	53	 1	 6.07	 1.76	 0.0	 -61.98	 1	    1.00000	    0.00000	 138.0	 1	    1.10000	    0.90000;
	54	 1	 2.95	 1.16	 0.0	 0.0	 1	    1.00000	    0.00000	 138.0	 1	    1.10000	    0.90000;
	55	 1	 0.17	 0.00	 0.0	 0.0	 1	    1.00000	    0.00000	 138.0	 1	    1.10000	    0.90000;
	56	 1	 5.42	 1.44	 0.0	 0.0	 1	    1.00000	    0.00000	 138.0	 1	    1.10000	    0.90000;
	57	 1	 3.19	 0.82	 0.0	 0.0	 1	    1.00000	    0.00000	 138.0	 1	    1.10000	    0.90000;
	58	 1	 27.32	 -3.22	 0.0	 0.0	 1	    1.00000	    0.00000	 138.0	 1	    1.10000	    0.90000;
	59	 1	 5.08	 1.22	 0.0	 0.0	 1	    1.00000	    0.00000	 138.0	 1	    1.10000	    0.90000;
	60	 1	 1.15	 0.22	 0.0	 0.0	 1	    1.00000	    0.00000	 138.0	 1	    1.10000	    0.90000;
	61	 1	 6.88	 13.30	 0.0	 0.0	 1	    1.00000	    0.00000	 138.0	 1	    1.10000	    0.90000;
	62	 1	 0.0	 0.0	 0.0	 0.0	 1	    1.00000	    0.00000	 138.0	 1	    1.10000	    0.90000;
	63	 1	 3.60	 0.85	 0.0	 0.0	 1	    1.00000	    0.00000	 138.0	 1	    1.10000	    0.90000;
	64	 1	 1.80	 0.44	 0.0	 0.0	 1	    1.00000	    0.00000	 138.0	 1	    1.10000	    0.90000;
	65	 1	 1.64	 0.38	 0.0	 0.0	 1	    1.00000	    0.00000	 138.0	 1	    1.10000	    0.90000;
	66	 1	 5.66	 1.50	 0.0	 0.0	 1	    1.00000	    0.00000	 138.0	 1	    1.10000	    0.90000;
	67	 1	 7.39	 2.04	 0.0	 3.708	 1	    1.00000	    0.00000	 138.0	 1	    1.10000	    0.90000;
	68	 2	 13.17	 18.53	 0.0	 0.0	 1	    1.00000	    0.00000	 138.0	 1	    1.10000	    0.90000;
	69	 1	 0.0	 0.0	 0.0	 0.0	 1	    1.00000	    0.00000	 138.0	 1	    1.10000	    0.90000;
	70	 1	 19.15	 3.84	 0.0	 0.0	 1	    1.00000	    0.00000	 138.0	 1	    1.10000	    0.90000;
	71	 1	 0.0	 0.0	 0.0	 0.0	 1	    1.00000	    0.00000	 345.0	 2	    1.10000	    0.90000;
	72	 1	 0.0	 0.0	 0.0	 0.0	 1	    1.00000	    0.00000	 345.0	 2	    1.10000	    0.90000;
	73	 1	 0.0	 0.0	 0.0	 0.0	 1	    1.00000	    0.00000	 345.0	 2	    1.10000	    0.90000;
	74	 1	 0.0	 0.0	 0.0	 0.0	 1	    1.00000	    0.00000	 345.0	 2	    1.10000	    0.90000;
	75	 1	 9.19	 16.44	 0.0	 0.0	 1	    1.00000	    0.00000	 345.0	 2	    1.10000	    0.90000;
	76	 2	 15.25	 20.04	 0.0	 0.0	 1	    1.00000	    0.00000	 345.0	 2	    1.10000	    0.90000;
	77	 2	 9.19	 16.44	 0.0	 0.0	 1	    1.00000	    0.00000	 500.0	 2	    1.10000	    0.90000;
	78	 2	 0.0	 0.0	 0.0	 6.23030263671	 1	    1.00000	    0.00000	 345.0	 2	    1.10000	    0.90000;
	79	 1	 0.0	 0.0	 0.0	 0.0	 1	    1.00000	    0.00000	 345.0	 2	    1.10000	    0.90000;
	80	 1	 0.0	 0.0	 0.0	 0.0	 1	    1.00000	    0.00000	 345.0	 2	    1.10000	    0.90000;
	81	 1	 0.0	 0.0	 0.0	 0.0	 1	    1.00000	    0.00000	 345.0	 2	    1.10000	    0.90000;
	82	 1	 0.0	 0.0	 0.0	 0.0	 1	    1.00000	    0.00000	 345.0	 2	    1.10000	    0.90000;
	83	 1	 8.77	 1.45	 0.0	 0.0	 1	    1.00000	    0.00000	 138.0	 2	    1.10000	    0.90000;
	84	 1	 19.85	 3.52	 0.0	 0.0	 1	    1.00000	    0.00000	 138.0	 2	    1.10000	    0.90000;
	85	 1	 0.0	 0.0	 0.0	 0.0	 1	    1.00000	    0.00000	 138.0	 2	    1.10000	    0.90000;
	86	 1	 12.03	 4.79	 0.0	 6.325	 1	    1.00000	    0.00000	 138.0	 2	    1.10000	    0.90000;
	87	 1	 2.31	 0.70	 0.0	 0.0	 1	    1.00000	    0.00000	 138.0	 2	    1.10000	    0.90000;
	88	 1	 5.08	 0.35	 0.0	 0.0	 1	    1.00000	    0.00000	 138.0	 2	    1.10000	    0.90000;
	89	 1	 9.57	 2.66	 0.0	 0.0	 1	    1.00000	    0.00000	 138.0	 2	    1.10000	    0.90000;
	90	 1	 2.78	 0.29	 0.0	 -0.019	 1	    1.00000	    0.00000	 138.0	 2	    1.10000	    0.90000;
	91	 1	 2.71	 0.64	 0.0	 0.0	 1	    1.00000	    0.00000	 138.0	 2	    1.10000	    0.90000;
	92	 1	 14.72	 18.03	 0.0	 0.0	 1	    1.00000	    0.00000	 138.0	 2	    1.10000	    0.90000;
	93	 1	 0.0	 0.0	 0.0	 0.0	 1	    1.00000	    0.00000	 138.0	 2	    1.10000	    0.90000;
	94	 1	 1.75	 0.46	 0.0	 0.0	 1	    1.00000	    0.00000	 138.0	 2	    1.10000	    0.90000;
	95	 1	 3.59	 1.05	 0.0	 7.99995490307	 1	    1.00000	    0.00000	 138.0	 2	    1.10000	    0.90000;
	96	 1	 0.06	 -0.43	 0.0	 0.0	 1	    1.00000	    0.00000	 138.0	 2	    1.10000	    0.90000;
	97	 1	 4.27	 1.08	 0.0	 0.0	 1	    1.00000	    0.00000	 138.0	 2	    1.10000	    0.90000;
	98	 2	 15.50	 13.98	 0.0	 0.0	 1	    1.00000	    0.00000	 138.0	 2	    1.10000	    0.90000;
	99	 2	 9.62	 5.08	 0.0	 0.0	 1	    1.00000	    0.00000	 138.0	 2	    1.10000	    0.90000;
	100	 1	 9.89	 2.60	 0.0	 0.0	 1	    1.00000	    0.00000	 138.0	 2	    1.10000	    0.90000;
	101	 1	 7.18	 2.08	 0.0	 0.0	 1	    1.00000	    0.00000	 138.0	 2	    1.10000	    0.90000;
	102	 1	 10.85	 3.12	 0.0	 0.0	 1	    1.00000	    0.00000	 138.0	 2	    1.10000	    0.90000;
	103	 1	 8.73	 2.05	 0.0	 0.0	 1	    1.00000	    0.00000	 138.0	 2	    1.10000	    0.90000;
	104	 1	 7.97	 2.08	 0.0	 -1.48527940582e-05	 1	    1.00000	    0.00000	 138.0	 2	    1.10000	    0.90000;
	105	 1	 0.0	 0.0	 0.0	 0.0	 1	    1.00000	    0.00000	 138.0	 2	    1.10000	    0.90000;
	106	 1	 0.0	 0.0	 0.0	 0.0	 1	    1.00000	    0.00000	 138.0	 2	    1.10000	    0.90000;
	107	 1	 4.20	 0.35	 0.0	 0.0	 1	    1.00000	    0.00000	 138.0	 2	    1.10000	    0.90000;
	108	 1	 5.26	 1.10	 0.0	 0.0	 1	    1.00000	    0.00000	 138.0	 2	    1.10000	    0.90000;
	109	 1	 4.30	 1.27	 0.0	 0.0	 1	    1.00000	    0.00000	 138.0	 2	    1.10000	    0.90000;
	110	 1	 3.19	 0.93	 0.0	 0.0	 1	    1.00000	    0.00000	 138.0	 2	    1.10000	    0.90000;
	111	 1	 1.12	 0.29	 0.0	 0.0	 1	    1.00000	    0.00000	 138.0	 2	    1.10000	    0.90000;
	112	 1	 1.37	 0.42	 0.0	 0.0	 1	    1.00000	    0.00000	 138.0	 2	    1.10000	    0.90000;
	113	 1	 1.28	 0.41	 0.0	 0.0	 1	    1.00000	    0.00000	 138.0	 2	    1.10000	    0.90000;
	114	 1	 2.38	 0.47	 0.0	 0.0	 1	    1.00000	    0.00000	 138.0	 2	    1.10000	    0.90000;
	115	 1	 3.65	 0.30	 0.0	 0.0	 1	    1.00000	    0.00000	 138.0	 2	    1.10000	    0.90000;
	116	 1	 5.42	 0.98	 0.0	 0.0	 1	    1.00000	    0.00000	 138.0	 2	    1.10000	    0.90000;
	117	 1	 8.77	 2.54	 0.0	 3.51187827085	 1	    1.00000	    0.00000	 138.0	 2	    1.10000	    0.90000;
	118	 1	 6.46	 1.85	 0.0	 0.0	 1	    1.00000	    0.00000	 138.0	 2	    1.10000	    0.90000;
	119	 1	 3.71	 -0.93	 0.0	 0.0	 1	    1.00000	    0.00000	 138.0	 2	    1.10000	    0.90000;
	120	 2	 16.75	 6.94	 0.0	 0.0	 1	    1.00000	    0.00000	 138.0	 2	    1.10000	    0.90000;
	121	 1	 19.13	 12.71	 0.0	 0.0	 1	    1.00000	    0.00000	 138.0	 2	    1.10000	    0.90000;
	122	 1	 11.16	 2.31	 0.0	 0.0	 1	    1.00000	    0.00000	 138.0	 2	    1.10000	    0.90000;
	123	 1	 12.35	 2.60	 0.0	 0.0	 1	    1.00000	    0.00000	 138.0	 2	    1.10000	    0.90000;
	124	 1	 4.09	 0.97	 0.0	 0.0	 1	    1.00000	    0.00000	 138.0	 2	    1.10000	    0.90000;
	125	 1	 4.34	 3.20	 0.0	 0.0	 1	    1.00000	    0.00000	 138.0	 2	    1.10000	    0.90000;
	126	 1	 5.90	 1.73	 0.0	 0.0	 1	    1.00000	    0.00000	 138.0	 2	    1.10000	    0.90000;
	127	 1	 0.0	 0.0	 0.0	 0.0	 1	    1.00000	    0.00000	 138.0	 2	    1.10000	    0.90000;
	128	 1	 5.67	 1.39	 0.0	 0.0	 1	    1.00000	    0.00000	 138.0	 2	    1.10000	    0.90000;
	129	 1	 0.92	 0.26	 0.0	 0.0	 1	    1.00000	    0.00000	 138.0	 2	    1.10000	    0.90000;
	130	 1	 4.38	 1.27	 0.0	 0.0	 1	    1.00000	    0.00000	 138.0	 2	    1.10000	    0.90000;
	131	 1	 4.47	 1.27	 0.0	 0.0	 1	    1.00000	    0.00000	 138.0	 2	    1.10000	    0.90000;
	132	 1	 4.79	 0.95	 0.0	 0.0	 1	    1.00000	    0.00000	 138.0	 2	    1.10000	    0.90000;
	133	 1	 4.79	 0.95	 0.0	 0.0	 1	    1.00000	    0.00000	 138.0	 2	    1.10000	    0.90000;
	134	 1	 0.48	 0.11	 0.0	 0.0	 1	    1.00000	    0.00000	 138.0	 2	    1.10000	    0.90000;
	135	 2	 10.06	 2.89	 0.0	 0.0	 1	    1.00000	    0.00000	 138.0	 2	    1.10000	    0.90000;
	136	 1	 7.18	 1.98	 0.0	 0.0	 1	    1.00000	    0.00000	 138.0	 2	    1.10000	    0.90000;
	137	 1	 3.58	 1.04	 0.0	 0.0	 1	    1.00000	    0.00000	 138.0	 2	    1.10000	    0.90000;
	138	 1	 4.95	 1.39	 0.0	 4.1998700159	 1	    1.00000	    0.00000	 138.0	 2	    1.10000	    0.90000;
	139	 1	 16.67	 3.34	 0.0	 0.0	 1	    1.00000	    0.00000	 138.0	 2	    1.10000	    0.90000;
	140	 1	 1.59	 0.46	 0.0	 0.0	 1	    1.00000	    0.00000	 138.0	 2	    1.10000	    0.90000;
	141	 1	 2.08	 0.57	 0.0	 0.0	 1	    1.00000	    0.00000	 138.0	 2	    1.10000	    0.90000;
	142	 1	 3.11	 0.29	 0.0	 0.0	 1	    1.00000	    0.00000	 138.0	 2	    1.10000	    0.90000;
	143	 1	 0.0	 0.0	 0.0	 0.0	 1	    1.00000	    0.00000	 138.0	 2	    1.10000	    0.90000;
	144	 1	 0.0	 0.0	 0.0	 0.0	 1	    1.00000	    0.00000	 138.0	 2	    1.10000	    0.90000;
	145	 1	 0.0	 0.0	 0.0	 0.0	 1	    1.00000	    0.00000	 138.0	 2	    1.10000	    0.90000;
	146	 1	 6.46	 1.68	 0.0	 0.0	 1	    1.00000	    0.00000	 138.0	 2	    1.10000	    0.90000;
	147	 1	 2.87	 0.46	 0.0	 0.0	 1	    1.00000	    0.00000	 138.0	 2	    1.10000	    0.90000;
	148	 1	 21.61	 5.66	 0.0	 0.0	 1	    1.00000	    0.00000	 138.0	 2	    1.10000	    0.90000;
	149	 1	 1.20	 0.34	 0.0	 0.0	 1	    1.00000	    0.00000	 138.0	 2	    1.10000	    0.90000;
	150	 2	 347.40	 0.00	 0.0	 0.0	 1	    1.00000	    0.00000	 345.0	 2	    1.10000	    0.90000;
	151	 1	 62.43	 47.07	 0.0	 0.0	 1	    1.00000	    0.00000	 345.0	 3	    1.10000	    0.90000;
	152	 1	 0.0	 0.0	 0.0	 0.0	 1	    1.00000	    0.00000	 500.0	 3	    1.10000	    0.90000;
	153	 1	 0.0	 0.0	 0.0	 -11.354	 1	    1.00000	    0.00000	 500.0	 3	    1.10000	    0.90000;
	154	 1	 0.0	 0.0	 0.0	 0.0	 1	    1.00000	    0.00000	 500.0	 3	    1.10000	    0.90000;
	155	 1	 0.0	 0.0	 0.0	 0.0	 1	    1.00000	    0.00000	 500.0	 3	    1.10000	    0.90000;
	156	 1	 118.42	 39.30	 0.0	 75.294	 1	    1.00000	    0.00000	 500.0	 3	    1.10000	    0.90000;
	157	 1	 0.0	 0.0	 0.0	 -27.072	 1	    1.00000	    0.00000	 345.0	 3	    1.10000	    0.90000;
	158	 1	 0.0	 0.0	 0.0	 -322.112	 1	    1.00000	    0.00000	 500.0	 3	    1.10000	    0.90000;
	159	 1	 0.0	 0.0	 0.0	 0.0	 1	    1.00000	    0.00000	 500.0	 3	    1.10000	    0.90000;
	160	 1	 0.0	 0.0	 0.0	 0.0	 1	    1.00000	    0.00000	 500.0	 3	    1.10000	    0.90000;
	161	 1	 0.0	 0.0	 0.0	 -124.239	 1	    1.00000	    0.00000	 500.0	 3	    1.10000	    0.90000;
	162	 1	 26.59	 32.97	 0.0	 0.0	 1	    1.00000	    0.00000	 500.0	 3	    1.10000	    0.90000;
	163	 1	 0.0	 0.0	 0.0	 0.00335811035315	 1	    1.00000	    0.00000	 500.0	 3	    1.10000	    0.90000;
	164	 1	 0.0	 0.0	 0.0	 0.0	 1	    1.00000	    0.00000	 500.0	 3	    1.10000	    0.90000;
	165	 1	 8.42	 21.92	 0.0	 0.0	 1	    1.00000	    0.00000	 500.0	 3	    1.10000	    0.90000;
	166	 2	 3.83	 5.48	 0.0	 0.0	 1	    1.00000	    0.00000	 500.0	 3	    1.10000	    0.90000;
	167	 1	 5.31	 1.70	 0.0	 0.0	 1	    1.00000	    0.00000	 138.0	 3	    1.10000	    0.90000;
	168	 2	 11.22	 0.55	 0.0	 0.0	 1	    1.00000	    0.00000	 138.0	 3	    1.10000	    0.90000;
	169	 1	 6.23	 0.72	 0.0	 0.0	 1	    1.00000	    0.00000	 138.0	 3	    1.10000	    0.90000;
	170	 1	 10.85	 2.31	 0.0	 0.0	 1	    1.00000	    0.00000	 138.0	 3	    1.10000	    0.90000;
	171	 1	 3.23	 0.55	 0.0	 0.0	 1	    1.00000	    0.00000	 138.0	 3	    1.10000	    0.90000;
	172	 1	 101.04	 31.26	 0.0	 16.0407575511	 1	    1.00000	    0.00000	 138.0	 3	    1.10000	    0.90000;
	173	 1	 0.0	 0.0	 0.0	 0.000126326795128	 1	    1.00000	    0.00000	 32.0	 3	    1.10000	    0.90000;
	174	 1	 0.0	 0.0	 0.0	 0.0	 1	    1.00000	    0.00000	 138.0	 3	    1.10000	    0.90000;
	175	 1	 4.00	 1.16	 0.0	 0.0	 1	    1.00000	    0.00000	 138.0	 3	    1.10000	    0.90000;
	176	 1	 2.00	 0.55	 0.0	 0.0	 1	    1.00000	    0.00000	 138.0	 3	    1.10000	    0.90000;
	177	 1	 0.01	 0.01	 0.0	 0.0	 1	    1.00000	    0.00000	 138.0	 3	    1.10000	    0.90000;
	178	 2	 0.01	 0.01	 0.0	 0.0	 1	    1.00000	    0.00000	 138.0	 3	    1.10000	    0.90000;
	179	 1	 12.00	 2.86	 0.0	 0.0	 1	    1.00000	    0.00000	 138.0	 3	    1.10000	    0.90000;
	180	 1	 12.85	 2.59	 0.0	 0.0	 1	    1.00000	    0.00000	 138.0	 3	    1.10000	    0.90000;
	181	 1	 3.23	 0.27	 0.0	 0.0	 1	    1.00000	    0.00000	 138.0	 3	    1.10000	    0.90000;
	182	 1	 8.31	 0.55	 0.0	 0.0	 1	    1.00000	    0.00000	 138.0	 3	    1.10000	    0.90000;
	183	 2	 11.24	 1.70	 0.0	 0.0	 1	    1.00000	    0.00000	 138.0	 3	    1.10000	    0.90000;
	184	 1	 5.78	 0.55	 0.0	 0.0	 1	    1.00000	    0.00000	 138.0	 3	    1.10000	    0.90000;
	185	 2	 1.62	 0.27	 0.0	 0.0	 1	    1.00000	    0.00000	 138.0	 3	    1.10000	    0.90000;
	186	 1	 4.39	 0.55	 0.0	 0.0	 1	    1.00000	    0.00000	 138.0	 3	    1.10000	    0.90000;
	187	 1	 0.0	 0.0	 0.0	 55.9920014246	 1	    1.00000	    0.00000	 16.0	 3	    1.10000	    0.90000;
	188	 2	 7.24	 1.43	 0.0	 5.27387853308	 1	    1.00000	    0.00000	 138.0	 3	    1.10000	    0.90000;
	189	 1	 3.23	 0.55	 0.0	 0.0	 1	    1.00000	    0.00000	 138.0	 3	    1.10000	    0.90000;
	190	 1	 0.0	 0.0	 0.0	 0.0156527920741	 1	    1.00000	    0.00000	 138.0	 3	    1.10000	    0.90000;
	191	 1	 12.00	 1.43	 0.0	 0.0	 1	    1.00000	    0.00000	 138.0	 3	    1.10000	    0.90000;
	192	 1	 15.24	 3.74	 0.0	 0.0	 1	    1.00000	    0.00000	 138.0	 3	    1.10000	    0.90000;
	193	 1	 6.39	 1.49	 0.0	 0.0	 1	    1.00000	    0.00000	 138.0	 3	    1.10000	    0.90000;
	194	 1	 12.85	 3.47	 0.0	 0.0	 1	    1.00000	    0.00000	 138.0	 3	    1.10000	    0.90000;
	195	 2	 11.24	 1.70	 0.0	 0.0	 1	    1.00000	    0.00000	 138.0	 3	    1.10000	    0.90000;
	196	 1	 3.18	 -0.12	 0.0	 0.0	 1	    1.00000	    0.00000	 138.0	 3	    1.10000	    0.90000;
	197	 1	 5.61	 1.16	 0.0	 0.0	 1	    1.00000	    0.00000	 138.0	 3	    1.10000	    0.90000;
	198	 1	 4.00	 0.27	 0.0	 0.0	 1	    1.00000	    0.00000	 138.0	 3	    1.10000	    0.90000;
	199	 1	 0.0	 0.0	 0.0	 -2.49761461351	 1	    1.00000	    0.00000	 138.0	 3	    1.10000	    0.90000;
	200	 1	 0.0	 0.0	 0.0	 -18.0621211952	 1	    1.00000	    0.00000	 138.0	 3	    1.10000	    0.90000;
	201	 2	 7.24	 0.55	 0.0	 0.0	 1	    1.00000	    0.00000	 138.0	 3	    1.10000	    0.90000;
	202	 1	 16.48	 0.35	 0.0	 0.0	 1	    1.00000	    0.00000	 138.0	 3	    1.10000	    0.90000;
	203	 1	 8.00	 0.55	 0.0	 0.0	 1	    1.00000	    0.00000	 138.0	 3	    1.10000	    0.90000;
	204	 1	 6.39	 1.70	 0.0	 0.0	 1	    1.00000	    0.00000	 138.0	 3	    1.10000	    0.90000;
	205	 1	 0.0	 0.0	 0.0	 0.0	 1	    1.00000	    0.00000	 138.0	 3	    1.10000	    0.90000;
	206	 1	 11.24	 1.70	 0.0	 0.0	 1	    1.00000	    0.00000	 138.0	 3	    1.10000	    0.90000;
	207	 1	 23.31	 2.31	 0.0	 0.0	 1	    1.00000	    0.00000	 138.0	 3	    1.10000	    0.90000;
	208	 1	 14.47	 2.59	 0.0	 0.0	 1	    1.00000	    0.00000	 138.0	 3	    1.10000	    0.90000;
	209	 1	 8.85	 0.55	 0.0	 0.0	 1	    1.00000	    0.00000	 138.0	 3	    1.10000	    0.90000;
	210	 1	 13.62	 2.31	 0.0	 0.0	 1	    1.00000	    0.00000	 138.0	 3	    1.10000	    0.90000;
	211	 1	 0.0	 0.0	 0.0	 0.0	 1	    1.00000	    0.00000	 138.0	 3	    1.10000	    0.90000;
	212	 1	 0.15	 -0.83	 0.0	 0.0	 1	    1.00000	    0.00000	 138.0	 3	    1.10000	    0.90000;
	213	 1	 1.67	 -0.47	 0.0	 0.0	 1	    1.00000	    0.00000	 138.0	 3	    1.10000	    0.90000;
	214	 1	 0.0	 0.0	 0.0	 -0.0233973030703	 1	    1.00000	    0.00000	 138.0	 3	    1.10000	    0.90000;
	215	 1	 0.0	 0.0	 0.0	 -6.54915649581	 1	    1.00000	    0.00000	 138.0	 3	    1.10000	    0.90000;
	216	 1	 0.0	 0.0	 0.0	 0.0	 1	    1.00000	    0.00000	 500.0	 3	    1.10000	    0.90000;
	217	 2	 0.0	 0.0	 0.0	 0.0	 1	    1.00000	    0.00000	 345.0	 4	    1.10000	    0.90000;
	218	 1	 10.25	 71.23	 0.0	 0.0	 1	    1.00000	    0.00000	 345.0	 4	    1.10000	    0.90000;
	219	 1	 0.0	 0.0	 0.0	 0.0	 1	    1.00000	    0.00000	 345.0	 4	    1.10000	    0.90000;
	220	 1	 0.0	 0.0	 0.0	 0.0	 1	    1.00000	    0.00000	 345.0	 4	    1.10000	    0.90000;
	221	 1	 38.50	 7.90	 0.0	 13.922	 1	    1.00000	    0.00000	 345.0	 4	    1.10000	    0.90000;
	222	 1	 75.03	 33.20	 0.0	 0.0	 1	    1.00000	    0.00000	 345.0	 4	    1.10000	    0.90000;
	223	 1	 7.66	 24.11	 0.0	 0.0	 1	    1.00000	    0.00000	 345.0	 4	    1.10000	    0.90000;
	224	 2	 7.66	 24.11	 0.0	 0.0	 1	    1.00000	    0.00000	 345.0	 4	    1.10000	    0.90000;
	225	 2	 12.64	 -43.09	 0.0	 -110.36	 1	    1.00000	    0.00000	 345.0	 4	    1.10000	    0.90000;
	226	 1	 22.33	 -10.64	 0.0	 -18.625	 1	    1.00000	    0.00000	 345.0	 4	    1.10000	    0.90000;
	227	 1	 0.00	 -0.43	 0.0	 0.0	 1	    1.00000	    0.00000	 345.0	 4	    1.10000	    0.90000;
	228	 1	 0.00	 -0.43	 0.0	 0.0	 1	    1.00000	    0.00000	 345.0	 4	    1.10000	    0.90000;
	229	 1	 2.78	 0.71	 0.0	 0.0	 1	    1.00000	    0.00000	 138.0	 4	    1.10000	    0.90000;
	230	 1	 0.0	 0.0	 0.0	 0.0	 1	    1.00000	    0.00000	 138.0	 4	    1.10000	    0.90000;
	231	 1	 16.11	 -5.34	 0.0	 0.0	 1	    1.00000	    0.00000	 138.0	 4	    1.10000	    0.90000;
	232	 1	 11.63	 2.50	 0.0	 4.355	 1	    1.00000	    0.00000	 138.0	 4	    1.10000	    0.90000;
	233	 1	 8.18	 2.53	 0.0	 0.0	 1	    1.00000	    0.00000	 138.0	 4	    1.10000	    0.90000;
	234	 1	 4.17	 2.25	 0.0	 0.0	 1	    1.00000	    0.00000	 138.0	 4	    1.10000	    0.90000;
	235	 1	 49.45	 8.69	 0.0	 0.0	 1	    1.00000	    0.00000	 138.0	 4	    1.10000	    0.90000;
	236	 1	 0.88	 -0.30	 0.0	 0.0	 1	    1.00000	    0.00000	 138.0	 4	    1.10000	    0.90000;
	237	 1	 0.0	 0.0	 0.0	 0.0	 1	    1.00000	    0.00000	 138.0	 4	    1.10000	    0.90000;
	238	 1	 43.66	 10.57	 0.0	 0.0	 1	    1.00000	    0.00000	 138.0	 4	    1.10000	    0.90000;
	239	 1	 0.0	 0.0	 0.0	 0.0	 1	    1.00000	    0.00000	 138.0	 4	    1.10000	    0.90000;
	240	 1	 0.0	 0.0	 0.0	 0.0	 1	    1.00000	    0.00000	 138.0	 4	    1.10000	    0.90000;
	241	 1	 29.64	 4.37	 0.0	 0.0	 1	    1.00000	    0.00000	 138.0	 4	    1.10000	    0.90000;
	242	 1	 0.90	 0.11	 0.0	 0.0	 1	    1.00000	    0.00000	 138.0	 4	    1.10000	    0.90000;
	243	 1	 10.33	 -5.38	 0.0	 0.0	 1	    1.00000	    0.00000	 138.0	 4	    1.10000	    0.90000;
	244	 1	 3.44	 0.82	 0.0	 0.0	 1	    1.00000	    0.00000	 138.0	 4	    1.10000	    0.90000;
	245	 1	 0.0	 0.0	 0.0	 -10.356	 1	    1.00000	    0.00000	 138.0	 4	    1.10000	    0.90000;
	246	 2	 7.66	 24.11	 0.0	 0.0	 1	    1.00000	    0.00000	 138.0	 4	    1.10000	    0.90000;
	247	 1	 7.28	 2.03	 0.0	 0.0	 1	    1.00000	    0.00000	 138.0	 4	    1.10000	    0.90000;
	248	 2	 0.0	 0.0	 0.0	 0.0	 1	    1.00000	    0.00000	 138.0	 4	    1.10000	    0.90000;
	249	 1	 4.59	 1.12	 0.0	 0.0	 1	    1.00000	    0.00000	 138.0	 4	    1.10000	    0.90000;
	250	 1	 0.0	 0.0	 0.0	 0.0	 1	    1.00000	    0.00000	 138.0	 4	    1.10000	    0.90000;
	251	 1	 5.73	 2.20	 0.0	 0.0	 1	    1.00000	    0.00000	 138.0	 4	    1.10000	    0.90000;
	252	 2	 14.94	 26.30	 0.0	 0.0	 1	    1.00000	    0.00000	 138.0	 4	    1.10000	    0.90000;
	253	 1	 35.16	 5.86	 0.0	 6.238	 1	    1.00000	    0.00000	 138.0	 4	    1.10000	    0.90000;
	254	 1	 33.53	 -5.25	 0.0	 0.0	 1	    1.00000	    0.00000	 138.0	 4	    1.10000	    0.90000;
	255	 1	 20.74	 5.56	 0.0	 7.309	 1	    1.00000	    0.00000	 138.0	 4	    1.10000	    0.90000;
	256	 1	 1.88	 0.50	 0.0	 0.0	 1	    1.00000	    0.00000	 138.0	 4	    1.10000	    0.90000;
	257	 1	 0.98	 0.16	 0.0	 0.0	 1	    1.00000	    0.00000	 138.0	 4	    1.10000	    0.90000;
	258	 1	 0.0	 0.0	 0.0	 0.0	 1	    1.00000	    0.00000	 138.0	 4	    1.10000	    0.90000;
	259	 1	 4.92	 1.25	 0.0	 0.0	 1	    1.00000	    0.00000	 138.0	 4	    1.10000	    0.90000;
	260	 1	 9.44	 2.61	 0.0	 0.0	 1	    1.00000	    0.00000	 138.0	 4	    1.10000	    0.90000;
	261	 1	 2.70	 0.60	 0.0	 0.0	 1	    1.00000	    0.00000	 138.0	 4	    1.10000	    0.90000;
	262	 1	 0.0	 0.0	 0.0	 0.0	 1	    1.00000	    0.00000	 138.0	 4	    1.10000	    0.90000;
	263	 1	 1.72	 0.38	 0.0	 0.0	 1	    1.00000	    0.00000	 138.0	 4	    1.10000	    0.90000;
	264	 1	 0.0	 0.0	 0.0	 0.0	 1	    1.00000	    0.00000	 138.0	 4	    1.10000	    0.90000;
	265	 1	 3.85	 0.96	 0.0	 0.0	 1	    1.00000	    0.00000	 138.0	 4	    1.10000	    0.90000;
	266	 1	 4.25	 1.05	 0.0	 0.0	 1	    1.00000	    0.00000	 138.0	 4	    1.10000	    0.90000;
	267	 1	 0.0	 0.0	 0.0	 0.0	 1	    1.00000	    0.00000	 138.0	 4	    1.10000	    0.90000;
	268	 1	 14.30	 5.56	 0.0	 0.0	 1	    1.00000	    0.00000	 138.0	 4	    1.10000	    0.90000;
	269	 1	 2.60	 -0.28	 0.0	 0.0	 1	    1.00000	    0.00000	 138.0	 4	    1.10000	    0.90000;
	270	 1	 3.11	 0.71	 0.0	 0.0	 1	    1.00000	    0.00000	 138.0	 4	    1.10000	    0.90000;
	271	 1	 47.77	 3.84	 0.0	 5.929	 1	    1.00000	    0.00000	 138.0	 4	    1.10000	    0.90000;
	272	 1	 0.0	 0.0	 0.0	 0.0	 1	    1.00000	    0.00000	 138.0	 4	    1.10000	    0.90000;
	273	 1	 0.0	 0.0	 0.0	 0.0	 1	    1.00000	    0.00000	 138.0	 4	    1.10000	    0.90000;
	274	 1	 222.47	 0.00	 0.0	 0.0	 1	    1.00000	    0.00000	 345.0	 4	    1.10000	    0.90000;
	275	 1	 62.43	 47.07	 0.0	 -151.551612149	 1	    1.00000	    0.00000	 345.0	 5	    1.10000	    0.90000;
	276	 1	 0.0	 0.0	 0.0	 0.0	 1	    1.00000	    0.00000	 500.0	 5	    1.10000	    0.90000;
	277	 1	 0.0	 0.0	 0.0	 110.69	 1	    1.00000	    0.00000	 500.0	 5	    1.10000	    0.90000;
	278	 1	 0.0	 0.0	 0.0	 0.0	 1	    1.00000	    0.00000	 500.0	 5	    1.10000	    0.90000;
	279	 1	 0.0	 0.0	 0.0	 0.0	 1	    1.00000	    0.00000	 500.0	 5	    1.10000	    0.90000;
	280	 1	 118.42	 39.30	 0.0	 0.0	 1	    1.00000	    0.00000	 500.0	 5	    1.10000	    0.90000;
	281	 1	 0.0	 0.0	 0.0	 2.151	 1	    1.00000	    0.00000	 345.0	 5	    1.10000	    0.90000;
	282	 2	 0.0	 0.0	 0.0	 0.0	 1	    1.00000	    0.00000	 500.0	 5	    1.10000	    0.90000;
	284	 1	 0.0	 0.0	 0.0	 0.0	 1	    1.00000	    0.00000	 500.0	 5	    1.10000	    0.90000;
	285	 1	 0.0	 0.0	 0.0	 -161.346	 1	    1.00000	    0.00000	 500.0	 5	    1.10000	    0.90000;
	286	 1	 66.55	 32.97	 0.0	 0.0	 1	    1.00000	    0.00000	 500.0	 5	    1.10000	    0.90000;
	287	 1	 0.0	 0.0	 0.0	 0.000155218244784	 1	    1.00000	    0.00000	 500.0	 5	    1.10000	    0.90000;
	288	 1	 0.0	 0.0	 0.0	 0.0	 1	    1.00000	    0.00000	 500.0	 5	    1.10000	    0.90000;
	289	 2	 8.42	 21.92	 0.0	 0.0	 1	    1.00000	    0.00000	 500.0	 5	    1.10000	    0.90000;
	290	 1	 3.83	 5.48	 0.0	 0.0	 1	    1.00000	    0.00000	 500.0	 5	    1.10000	    0.90000;
	291	 1	 5.31	 1.70	 0.0	 0.0	 1	    1.00000	    0.00000	 138.0	 5	    1.10000	    0.90000;
	292	 2	 11.22	 0.55	 0.0	 0.0	 1	    1.00000	    0.00000	 138.0	 5	    1.10000	    0.90000;
	293	 1	 6.23	 0.72	 0.0	 0.0	 1	    1.00000	    0.00000	 138.0	 5	    1.10000	    0.90000;
	294	 1	 10.85	 2.31	 0.0	 0.0	 1	    1.00000	    0.00000	 138.0	 5	    1.10000	    0.90000;
	295	 1	 3.23	 0.55	 0.0	 0.0	 1	    1.00000	    0.00000	 138.0	 5	    1.10000	    0.90000;
	296	 1	 101.04	 31.26	 0.0	 2.81540352339	 1	    1.00000	    0.00000	 138.0	 5	    1.10000	    0.90000;
	297	 2	 0.0	 0.0	 0.0	 0.0	 1	    1.00000	    0.00000	 32.0	 5	    1.10000	    0.90000;
	298	 1	 0.0	 0.0	 0.0	 0.0	 1	    1.00000	    0.00000	 138.0	 5	    1.10000	    0.90000;
	299	 1	 4.00	 1.16	 0.0	 0.0	 1	    1.00000	    0.00000	 138.0	 5	    1.10000	    0.90000;
	300	 1	 2.00	 0.55	 0.0	 0.0	 1	    1.00000	    0.00000	 138.0	 5	    1.10000	    0.90000;
	301	 1	 0.01	 0.01	 0.0	 0.0	 1	    1.00000	    0.00000	 138.0	 5	    1.10000	    0.90000;
	302	 1	 0.01	 0.01	 0.0	 0.0	 1	    1.00000	    0.00000	 138.0	 5	    1.10000	    0.90000;
	303	 1	 12.00	 2.86	 0.0	 0.0	 1	    1.00000	    0.00000	 138.0	 5	    1.10000	    0.90000;
	304	 1	 12.85	 2.59	 0.0	 0.0	 1	    1.00000	    0.00000	 138.0	 5	    1.10000	    0.90000;
	305	 1	 3.23	 0.27	 0.0	 0.0	 1	    1.00000	    0.00000	 138.0	 5	    1.10000	    0.90000;
	306	 1	 8.31	 0.55	 0.0	 0.0	 1	    1.00000	    0.00000	 138.0	 5	    1.10000	    0.90000;
	307	 1	 11.24	 1.70	 0.0	 0.0	 1	    1.00000	    0.00000	 138.0	 5	    1.10000	    0.90000;
	308	 1	 5.78	 0.55	 0.0	 0.0	 1	    1.00000	    0.00000	 138.0	 5	    1.10000	    0.90000;
	309	 1	 1.62	 0.27	 0.0	 22.813	 1	    1.00000	    0.00000	 138.0	 5	    1.10000	    0.90000;
	310	 1	 4.39	 0.55	 0.0	 0.0	 1	    1.00000	    0.00000	 138.0	 5	    1.10000	    0.90000;
	311	 2	 0.0	 0.0	 0.0	 0.0	 1	    1.00000	    0.00000	 16.0	 5	    1.10000	    0.90000;
	312	 1	 7.24	 1.43	 0.0	 10.7997887402	 1	    1.00000	    0.00000	 138.0	 5	    1.10000	    0.90000;
	313	 1	 3.23	 0.55	 0.0	 0.0	 1	    1.00000	    0.00000	 138.0	 5	    1.10000	    0.90000;
	314	 1	 17.70	 4.57	 0.0	 15.2704909851	 1	    1.00000	    0.00000	 138.0	 5	    1.10000	    0.90000;
	315	 1	 12.00	 1.43	 0.0	 0.0	 1	    1.00000	    0.00000	 138.0	 5	    1.10000	    0.90000;
	316	 1	 15.24	 3.74	 0.0	 0.0	 1	    1.00000	    0.00000	 138.0	 5	    1.10000	    0.90000;