%%%%%%%%%%%%%%%%%%%%%%%%%%%%%%%%%%%%%%%%%%%%%%%%%%%%%%%%%%%%%%%%%%%%%%%%%%%
%%%%                                                                  %%%%%
%%%%    IEEE PES Power Grid Library - Optimal Power Flow - v23.07     %%%%%
%%%%          (https://github.com/power-grid-lib/pglib-opf)           %%%%%
%%%%             Benchmark Group - Active Power Increase              %%%%%
%%%%                         23 - July - 2023                         %%%%%
%%%%                                                                  %%%%%
%%%%%%%%%%%%%%%%%%%%%%%%%%%%%%%%%%%%%%%%%%%%%%%%%%%%%%%%%%%%%%%%%%%%%%%%%%%
function mpc = pglib_opf_case73_ieee_rts__api
mpc.version = '2';
mpc.baseMVA = 100.0;

%% area data
%	area	refbus
mpc.areas = [
	1	 101;
	2	 201;
	3	 301;
];

%% bus data
%	bus_i	type	Pd	Qd	Gs	Bs	area	Vm	Va	baseKV	zone	Vmax	Vmin
mpc.bus = [
	101	 2	 207.37	 22.00	 0.0	 0.0	 1	    1.00000	    0.00000	 138.0	 1	    1.05000	    0.95000;
	102	 2	 186.24	 20.00	 0.0	 0.0	 1	    1.00000	    0.00000	 138.0	 1	    1.05000	    0.95000;
	103	 1	 345.61	 37.00	 0.0	 0.0	 1	    1.00000	    0.00000	 138.0	 1	    1.05000	    0.95000;
	104	 1	 142.08	 15.00	 0.0	 0.0	 1	    1.00000	    0.00000	 138.0	 1	    1.05000	    0.95000;
	105	 1	 136.32	 14.00	 0.0	 0.0	 1	    1.00000	    0.00000	 138.0	 1	    1.05000	    0.95000;
	106	 1	 261.13	 28.00	 0.0	 -100.0	 1	    1.00000	    0.00000	 138.0	 1	    1.05000	    0.95000;
	107	 2	 240.01	 25.00	 0.0	 0.0	 1	    1.00000	    0.00000	 138.0	 1	    1.05000	    0.95000;
	108	 1	 328.33	 35.00	 0.0	 0.0	 1	    1.00000	    0.00000	 138.0	 1	    1.05000	    0.95000;
	109	 1	 336.01	 36.00	 0.0	 0.0	 1	    1.00000	    0.00000	 138.0	 1	    1.05000	    0.95000;
	110	 1	 374.41	 40.00	 0.0	 0.0	 1	    1.00000	    0.00000	 138.0	 1	    1.05000	    0.95000;
	111	 1	 0.0	 0.0	 0.0	 0.0	 1	    1.00000	    0.00000	 230.0	 1	    1.05000	    0.95000;
	112	 1	 0.0	 0.0	 0.0	 0.0	 1	    1.00000	    0.00000	 230.0	 1	    1.05000	    0.95000;
	113	 3	 508.81	 54.00	 0.0	 0.0	 1	    1.00000	    0.00000	 230.0	 1	    1.05000	    0.95000;
	114	 2	 372.49	 39.00	 0.0	 0.0	 1	    1.00000	    0.00000	 230.0	 1	    1.05000	    0.95000;
	115	 2	 608.65	 64.00	 0.0	 0.0	 1	    1.00000	    0.00000	 230.0	 1	    1.05000	    0.95000;
	116	 2	 192.00	 20.00	 0.0	 0.0	 1	    1.00000	    0.00000	 230.0	 1	    1.05000	    0.95000;
	117	 1	 0.0	 0.0	 0.0	 0.0	 1	    1.00000	    0.00000	 230.0	 1	    1.05000	    0.95000;
	118	 2	 639.38	 68.00	 0.0	 0.0	 1	    1.00000	    0.00000	 230.0	 1	    1.05000	    0.95000;
	119	 1	 347.53	 37.00	 0.0	 0.0	 1	    1.00000	    0.00000	 230.0	 1	    1.05000	    0.95000;
	120	 1	 245.77	 26.00	 0.0	 0.0	 1	    1.00000	    0.00000	 230.0	 1	    1.05000	    0.95000;
	121	 2	 0.0	 0.0	 0.0	 0.0	 1	    1.00000	    0.00000	 230.0	 1	    1.05000	    0.95000;
	122	 2	 0.0	 0.0	 0.0	 0.0	 1	    1.00000	    0.00000	 230.0	 1	    1.05000	    0.95000;
	123	 2	 0.0	 0.0	 0.0	 0.0	 1	    1.00000	    0.00000	 230.0	 1	    1.05000	    0.95000;
	124	 1	 0.0	 0.0	 0.0	 0.0	 1	    1.00000	    0.00000	 230.0	 1	    1.05000	    0.95000;
	201	 2	 207.37	 22.00	 0.0	 0.0	 2	    1.00000	    0.00000	 138.0	 2	    1.05000	    0.95000;
	202	 2	 186.24	 20.00	 0.0	 0.0	 2	    1.00000	    0.00000	 138.0	 2	    1.05000	    0.95000;
	203	 1	 345.61	 37.00	 0.0	 0.0	 2	    1.00000	    0.00000	 138.0	 2	    1.05000	    0.95000;
	204	 1	 142.08	 15.00	 0.0	 0.0	 2	    1.00000	    0.00000	 138.0	 2	    1.05000	    0.95000;
	205	 1	 136.32	 14.00	 0.0	 0.0	 2	    1.00000	    0.00000	 138.0	 2	    1.05000	    0.95000;
	206	 1	 261.13	 28.00	 0.0	 -100.0	 2	    1.00000	    0.00000	 138.0	 2	    1.05000	    0.95000;
	207	 2	 240.01	 25.00	 0.0	 0.0	 2	    1.00000	    0.00000	 138.0	 2	    1.05000	    0.95000;
	208	 1	 328.33	 35.00	 0.0	 0.0	 2	    1.00000	    0.00000	 138.0	 2	    1.05000	    0.95000;
	209	 1	 336.01	 36.00	 0.0	 0.0	 2	    1.00000	    0.00000	 138.0	 2	    1.05000	    0.95000;
	210	 1	 374.41	 40.00	 0.0	 0.0	 2	    1.00000	    0.00000	 138.0	 2	    1.05000	    0.95000;
	211	 1	 0.0	 0.0	 0.0	 0.0	 2	    1.00000	    0.00000	 230.0	 2	    1.05000	    0.95000;
	212	 1	 0.0	 0.0	 0.0	 0.0	 2	    1.00000	    0.00000	 230.0	 2	    1.05000	    0.95000;
	213	 2	 508.81	 54.00	 0.0	 0.0	 2	    1.00000	    0.00000	 230.0	 2	    1.05000	    0.95000;
	214	 2	 372.49	 39.00	 0.0	 0.0	 2	    1.00000	    0.00000	 230.0	 2	    1.05000	    0.95000;
	215	 2	 608.65	 64.00	 0.0	 0.0	 2	    1.00000	    0.00000	 230.0	 2	    1.05000	    0.95000;
	216	 2	 192.00	 20.00	 0.0	 0.0	 2	    1.00000	    0.00000	 230.0	 2	    1.05000	    0.95000;
	217	 1	 0.0	 0.0	 0.0	 0.0	 2	    1.00000	    0.00000	 230.0	 2	    1.05000	    0.95000;
	218	 2	 639.38	 68.00	 0.0	 0.0	 2	    1.00000	    0.00000	 230.0	 2	    1.05000	    0.95000;
	219	 1	 347.53	 37.00	 0.0	 0.0	 2	    1.00000	    0.00000	 230.0	 2	    1.05000	    0.95000;
	220	 1	 245.77	 26.00	 0.0	 0.0	 2	    1.00000	    0.00000	 230.0	 2	    1.05000	    0.95000;
	221	 2	 0.0	 0.0	 0.0	 0.0	 2	    1.00000	    0.00000	 230.0	 2	    1.05000	    0.95000;
	222	 2	 0.0	 0.0	 0.0	 0.0	 2	    1.00000	    0.00000	 230.0	 2	    1.05000	    0.95000;
	223	 2	 0.0	 0.0	 0.0	 0.0	 2	    1.00000	    0.00000	 230.0	 2	    1.05000	    0.95000;
	224	 1	 0.0	 0.0	 0.0	 0.0	 2	    1.00000	    0.00000	 230.0	 2	    1.05000	    0.95000;
	301	 2	 207.37	 22.00	 0.0	 0.0	 3	    1.00000	    0.00000	 138.0	 3	    1.05000	    0.95000;
	302	 2	 186.24	 20.00	 0.0	 0.0	 3	    1.00000	    0.00000	 138.0	 3	    1.05000	    0.95000;
	303	 1	 345.61	 37.00	 0.0	 0.0	 3	    1.00000	    0.00000	 138.0	 3	    1.05000	    0.95000;
	304	 1	 142.08	 15.00	 0.0	 0.0	 3	    1.00000	    0.00000	 138.0	 3	    1.05000	    0.95000;
	305	 1	 136.32	 14.00	 0.0	 0.0	 3	    1.00000	    0.00000	 138.0	 3	    1.05000	    0.95000;
	306	 1	 261.13	 28.00	 0.0	 -100.0	 3	    1.00000	    0.00000	 138.0	 3	    1.05000	    0.95000;
	307	 2	 240.01	 25.00	 0.0	 0.0	 3	    1.00000	    0.00000	 138.0	 3	    1.05000	    0.95000;
	308	 1	 328.33	 35.00	 0.0	 0.0	 3	    1.00000	    0.00000	 138.0	 3	    1.05000	    0.95000;
	309	 1	 336.01	 36.00	 0.0	 0.0	 3	    1.00000	    0.00000	 138.0	 3	    1.05000	    0.95000;
	310	 1	 374.41	 40.00	 0.0	 0.0	 3	    1.00000	    0.00000	 138.0	 3	    1.05000	    0.95000;
	311	 1	 0.0	 0.0	 0.0	 0.0	 3	    1.00000	    0.00000	 230.0	 3	    1.05000	    0.95000;
	312	 1	 0.0	 0.0	 0.0	 0.0	 3	    1.00000	    0.00000	 230.0	 3	    1.05000	    0.95000;
	313	 2	 508.81	 54.00	 0.0	 0.0	 3	    1.00000	    0.00000	 230.0	 3	    1.05000	    0.95000;
	314	 2	 372.49	 39.00	 0.0	 0.0	 3	    1.00000	    0.00000	 230.0	 3	    1.05000	    0.95000;
	315	 2	 608.65	 64.00	 0.0	 0.0	 3	    1.00000	    0.00000	 230.0	 3	    1.05000	    0.95000;
	316	 2	 192.00	 20.00	 0.0	 0.0	 3	    1.00000	    0.00000	 230.0	 3	    1.05000	    0.95000;
	317	 1	 0.0	 0.0	 0.0	 0.0	 3	    1.00000	    0.00000	 230.0	 3	    1.05000	    0.95000;
	318	 2	 639.38	 68.00	 0.0	 0.0	 3	    1.00000	    0.00000	 230.0	 3	    1.05000	    0.95000;
	319	 1	 347.53	 37.00	 0.0	 0.0	 3	    1.00000	    0.00000	 230.0	 3	    1.05000	    0.95000;
	320	 1	 245.77	 26.00	 0.0	 0.0	 3	    1.00000	    0.00000	 230.0	 3	    1.05000	    0.95000;
	321	 2	 0.0	 0.0	 0.0	 0.0	 3	    1.00000	    0.00000	 230.0	 3	    1.05000	    0.95000;
	322	 2	 0.0	 0.0	 0.0	 0.0	 3	    1.00000	    0.00000	 230.0	 3	    1.05000	    0.95000;
	323	 2	 0.0	 0.0	 0.0	 0.0	 3	    1.00000	    0.00000	 230.0	 3	    1.05000	    0.95000;
	324	 1	 0.0	 0.0	 0.0	 0.0	 3	    1.00000	    0.00000	 230.0	 3	    1.05000	    0.95000;
	325	 1	 0.0	 0.0	 0.0	 0.0	 3	    1.00000	    0.00000	 230.0	 3	    1.05000	    0.95000;
];

%% generator data
%	bus	Pg	Qg	Qmax	Qmin	Vg	mBase	status	Pmax	Pmin
mpc.gen = [
	101	 46.5	 0.0	 43.0	 -43.0	 1.0	 100.0	 1	 85	 8.0; % COW
	101	 52.5	 0.0	 49.0	 -49.0	 1.0	 100.0	 1	 97	 8.0; % PEL
	101	 102.3	 0.0	 99.0	 -99.0	 1.0	 100.0	 1	 197	 7.6; % COW
	101	 63.3	 0.0	 60.0	 -60.0	 1.0	 100.0	 1	 119	 7.6; % PEL
	102	 146.0	 0.0	 142.0	 -142.0	 1.0	 100.0	 1	 284	 8.0; % PEL
	102	 95.5	 0.0	 92.0	 -92.0	 1.0	 100.0	 1	 183	 8.0; % PEL
	102	 83.3	 0.0	 80.0	 -80.0	 1.0	 100.0	 1	 159	 7.6; % PEL
	102	 112.8	 0.0	 109.0	 -109.0	 1.0	 100.0	 1	 218	 7.6; % NG
	107	 216.25	 0.0	 210.0	 -210.0	 1.0	 100.0	 1	 420	 12.5; % COW
	107	 137.75	 0.0	 132.0	 -132.0	 1.0	 100.0	 1	 263	 12.5; % NG
	107	 144.75	 0.0	 139.0	 -139.0	 1.0	 100.0	 1	 277	 12.5; % NG
	113	 324.75	 0.0	 308.0	 -308.0	 1.0	 100.0	 1	 615	 34.5; % NG
	113	 374.75	 0.0	 358.0	 -358.0	 1.0	 100.0	 1	 715	 34.5; % NG
	113	 411.25	 0.0	 394.0	 -394.0	 1.0	 100.0	 1	 788	 34.5; % COW
	114	 0.0	 25.6	 200.0	 -148.8	 1.0	 100.0	 1	 0	 0.0; % SYNC
	115	 127.6	 0.0	 127.0	 -127.0	 1.0	 100.0	 1	 254	 1.2; % NG
	115	 89.1	 0.0	 89.0	 -89.0	 1.0	 100.0	 1	 177	 1.2; % COW
	115	 370.1	 0.0	 370.0	 -370.0	 1.0	 100.0	 1	 739	 1.2; % COW
	115	 149.1	 0.0	 149.0	 -149.0	 1.0	 100.0	 1	 297	 1.2; % NG
	115	 98.1	 0.0	 98.0	 -98.0	 1.0	 100.0	 1	 195	 1.2; % NG
	115	 136.075	 0.0	 123.0	 -123.0	 1.0	 100.0	 1	 245	 27.15; % NG
	116	 759.075	 0.0	 746.0	 -746.0	 1.0	 100.0	 1	 1491	 27.15; % NG
	118	 149.0	 38.0	 200.0	 -124.0	 1.0	 100.0	 1	 248	 50.0; % NG
	121	 177.5	 23.5	 200.0	 -153.0	 1.0	 100.0	 1	 305	 50.0; % NG
	122	 29.0	 0.0	 27.0	 -27.0	 1.0	 100.0	 1	 53	 5.0; % NG
	122	 17.5	 0.5	 16.0	 -15.0	 1.0	 100.0	 1	 30	 5.0; % COW
	122	 16.5	 1.0	 16.0	 -14.0	 1.0	 100.0	 1	 28	 5.0; % NG
	122	 8.0	 3.0	 16.0	 -10.0	 1.0	 100.0	 1	 11	 5.0; % NG
	122	 14.0	 2.0	 16.0	 -12.0	 1.0	 100.0	 1	 23	 5.0; % NG
	122	 27.0	 0.0	 25.0	 -25.0	 1.0	 100.0	 1	 49	 5.0; % NG
	123	 117.075	 0.0	 104.0	 -104.0	 1.0	 100.0	 1	 207	 27.15; % NG
	123	 150.075	 0.0	 137.0	 -137.0	 1.0	 100.0	 1	 273	 27.15; % NG
	123	 327.0	 0.0	 292.0	 -292.0	 1.0	 100.0	 1	 584	 70.0; % COW
	201	 46.5	 0.0	 43.0	 -43.0	 1.0	 100.0	 1	 85	 8.0; % NG
	201	 38.5	 0.0	 35.0	 -35.0	 1.0	 100.0	 1	 69	 8.0; % PEL
	201	 69.8	 0.0	 66.0	 -66.0	 1.0	 100.0	 1	 132	 7.6; % NG
	201	 78.3	 0.0	 75.0	 -75.0	 1.0	 100.0	 1	 149	 7.6; % NG
	202	 96.5	 0.0	 93.0	 -93.0	 1.0	 100.0	 1	 185	 8.0; % COW
	202	 88.0	 0.0	 84.0	 -84.0	 1.0	 100.0	 1	 168	 8.0; % PEL
	202	 151.8	 0.0	 148.0	 -148.0	 1.0	 100.0	 1	 296	 7.6; % NG
	202	 110.3	 0.0	 107.0	 -107.0	 1.0	 100.0	 1	 213	 7.6; % NG
	207	 97.25	 0.0	 91.0	 -91.0	 1.0	 100.0	 1	 182	 12.5; % NG
	207	 156.25	 0.0	 150.0	 -150.0	 1.0	 100.0	 1	 300	 12.5; % NG
	207	 81.25	 0.0	 75.0	 -75.0	 1.0	 100.0	 1	 150	 12.5; % NG
	213	 241.25	 0.0	 224.0	 -224.0	 1.0	 100.0	 1	 448	 34.5; % NG
	213	 349.25	 0.0	 332.0	 -332.0	 1.0	 100.0	 1	 664	 34.5; % NG
	213	 239.25	 0.0	 222.0	 -222.0	 1.0	 100.0	 1	 444	 34.5; % NG
	214	 0.0	 31.6	 200.0	 -136.8	 1.0	 100.0	 1	 0	 0.0; % SYNC
	215	 168.1	 0.0	 168.0	 -168.0	 1.0	 100.0	 1	 335	 1.2; % COW
	215	 122.6	 0.0	 122.0	 -122.0	 1.0	 100.0	 1	 244	 1.2; % NG
	215	 126.6	 0.0	 126.0	 -126.0	 1.0	 100.0	 1	 252	 1.2; % NG
	215	 176.1	 0.0	 176.0	 -176.0	 1.0	 100.0	 1	 351	 1.2; % COW
	215	 184.6	 0.0	 184.0	 -184.0	 1.0	 100.0	 1	 368	 1.2; % NG
	215	 118.075	 0.0	 105.0	 -105.0	 1.0	 100.0	 1	 209	 27.15; % NG
	216	 595.575	 0.0	 582.0	 -582.0	 1.0	 100.0	 1	 1164	 27.15; % NG
	218	 115.5	 51.4	 200.0	 -97.2	 1.0	 100.0	 1	 181	 50.0; % NG
	221	 100.5	 52.6	 200.0	 -94.8	 1.0	 100.0	 1	 151	 50.0; % NG
	222	 13.5	 2.5	 16.0	 -11.0	 1.0	 100.0	 1	 22	 5.0; % NG
	222	 26.5	 0.0	 24.0	 -24.0	 1.0	 100.0	 1	 48	 5.0; % NG
	222	 10.5	 3.0	 16.0	 -10.0	 1.0	 100.0	 1	 16	 5.0; % NG
	222	 8.0	 3.0	 16.0	 -10.0	 1.0	 100.0	 1	 11	 5.0; % NG
	222	 23.5	 0.0	 21.0	 -21.0	 1.0	 100.0	 1	 42	 5.0; % NG
	222	 28.5	 0.0	 26.0	 -26.0	 1.0	 100.0	 1	 52	 5.0; % NG
	223	 132.075	 0.0	 119.0	 -119.0	 1.0	 100.0	 1	 237	 27.15; % NG
	223	 188.075	 0.0	 175.0	 -175.0	 1.0	 100.0	 1	 349	 27.15; % NG
	223	 292.5	 0.0	 258.0	 -258.0	 1.0	 100.0	 1	 515	 70.0; % NG
	301	 74.0	 0.0	 70.0	 -70.0	 1.0	 100.0	 1	 140	 8.0; % NG
	301	 62.5	 0.0	 59.0	 -59.0	 1.0	 100.0	 1	 117	 8.0; % PEL
	301	 94.8	 0.0	 91.0	 -91.0	 1.0	 100.0	 1	 182	 7.6; % PEL
	301	 133.8	 0.0	 130.0	 -130.0	 1.0	 100.0	 1	 260	 7.6; % NG
	302	 107.5	 0.0	 104.0	 -104.0	 1.0	 100.0	 1	 207	 8.0; % NG
	302	 87.0	 0.0	 83.0	 -83.0	 1.0	 100.0	 1	 166	 8.0; % PEL
	302	 104.8	 0.0	 101.0	 -101.0	 1.0	 100.0	 1	 202	 7.6; % PEL
	302	 148.3	 0.0	 145.0	 -145.0	 1.0	 100.0	 1	 289	 7.6; % NG
	307	 152.25	 0.0	 146.0	 -146.0	 1.0	 100.0	 1	 292	 12.5; % COW
	307	 180.25	 0.0	 174.0	 -174.0	 1.0	 100.0	 1	 348	 12.5; % NG
	307	 143.75	 0.0	 138.0	 -138.0	 1.0	 100.0	 1	 275	 12.5; % COW
	313	 277.75	 0.0	 261.0	 -261.0	 1.0	 100.0	 1	 521	 34.5; % NG
	313	 322.25	 0.0	 305.0	 -305.0	 1.0	 100.0	 1	 610	 34.5; % NG
	313	 284.75	 0.0	 268.0	 -268.0	 1.0	 100.0	 1	 535	 34.5; % NG
	314	 0.0	 26.2	 200.0	 -147.6	 1.0	 100.0	 1	 0	 0.0; % SYNC
	315	 129.6	 0.0	 129.0	 -129.0	 1.0	 100.0	 1	 258	 1.2; % COW
	315	 75.1	 0.0	 75.0	 -75.0	 1.0	 100.0	 1	 149	 1.2; % COW
	315	 166.6	 0.0	 166.0	 -166.0	 1.0	 100.0	 1	 332	 1.2; % NG
	315	 88.6	 0.0	 88.0	 -88.0	 1.0	 100.0	 1	 176	 1.2; % NG
	315	 164.1	 0.0	 164.0	 -164.0	 1.0	 100.0	 1	 327	 1.2; % NG
	315	 121.575	 0.0	 108.0	 -108.0	 1.0	 100.0	 1	 216	 27.15; % NG
	316	 714.075	 0.0	 701.0	 -701.0	 1.0	 100.0	 1	 1401	 27.15; % NG
	318	 93.5	 59.8	 200.0	 -80.4	 1.0	 100.0	 1	 137	 50.0; % COW
	321	 105.5	 59.5	 200.0	 -81.0	 1.0	 100.0	 1	 161	 50.0; % COW
	322	 25.5	 0.0	 23.0	 -23.0	 1.0	 100.0	 1	 46	 5.0; % PEL
	322	 8.0	 3.0	 16.0	 -10.0	 1.0	 100.0	 1	 11	 5.0; % NG
	322	 28.0	 0.0	 26.0	 -26.0	 1.0	 100.0	 1	 51	 5.0; % NG
	322	 15.5	 1.5	 16.0	 -13.0	 1.0	 100.0	 1	 26	 5.0; % NG
	322	 27.0	 0.0	 25.0	 -25.0	 1.0	 100.0	 1	 49	 5.0; % NG
	322	 10.5	 3.0	 16.0	 -10.0	 1.0	 100.0	 1	 16	 5.0; % NG
	323	 89.575	 2.0	 80.0	 -76.0	 1.0	 100.0	 1	 152	 27.15; % NG
	323	 115.575	 0.0	 102.0	 -102.0	 1.0	 100.0	 1	 204	 27.15; % NG
	323	 268.5	 0.0	 234.0	 -234.0	 1.0	 100.0	 1	 467	 70.0; % NG
];

%% generator cost data
%	2	startup	shutdown	n	c(n-1)	...	c0
mpc.gencost = [
	2	 1500.0	 0.0	 3	   0.000000	 130.000000	 400.684900; % COW
	2	 1500.0	 0.0	 3	   0.000000	 130.000000	 400.684900; % PEL
	2	 1500.0	 0.0	 3	   0.014142	  16.081100	 212.307600; % COW
	2	 1500.0	 0.0	 3	   0.014142	  16.081100	 212.307600; % PEL
	2	 1500.0	 0.0	 3	   0.000000	 130.000000	 400.684900; % PEL
	2	 1500.0	 0.0	 3	   0.000000	 130.000000	 400.684900; % PEL
	2	 1500.0	 0.0	 3	   0.014142	  16.081100	 212.307600; % PEL
	2	 1500.0	 0.0	 3	   0.014142	  16.081100	 212.307600; % NG
	2	 1500.0	 0.0	 3	   0.052672	  43.661500	 781.521000; % COW
	2	 1500.0	 0.0	 3	   0.052672	  43.661500	 781.521000; % NG
	2	 1500.0	 0.0	 3	   0.052672	  43.661500	 781.521000; % NG
	2	 1500.0	 0.0	 3	   0.007170	  48.580400	 832.757500; % NG
	2	 1500.0	 0.0	 3	   0.007170	  48.580400	 832.757500; % NG
	2	 1500.0	 0.0	 3	   0.007170	  48.580400	 832.757500; % COW
	2	 1500.0	 0.0	 3	   0.000000	   0.000000	   0.000000; % SYNC
	2	 1500.0	 0.0	 3	   0.328412	  56.564000	  86.385200; % NG
	2	 1500.0	 0.0	 3	   0.328412	  56.564000	  86.385200; % COW
	2	 1500.0	 0.0	 3	   0.328412	  56.564000	  86.385200; % COW
	2	 1500.0	 0.0	 3	   0.328412	  56.564000	  86.385200; % NG
	2	 1500.0	 0.0	 3	   0.328412	  56.564000	  86.385200; % NG
	2	 1500.0	 0.0	 3	   0.008342	  12.388300	 382.239100; % NG
	2	 1500.0	 0.0	 3	   0.008342	  12.388300	 382.239100; % NG
	2	 1500.0	 0.0	 3	   0.000213	   4.423100	 395.374900; % NG
	2	 1500.0	 0.0	 3	   0.000213	   4.423100	 395.374900; % NG
	2	 1500.0	 0.0	 3	   0.000000	   0.001000	   0.001000; % NG
	2	 1500.0	 0.0	 3	   0.000000	   0.001000	   0.001000; % COW
	2	 1500.0	 0.0	 3	   0.000000	   0.001000	   0.001000; % NG
	2	 1500.0	 0.0	 3	   0.000000	   0.001000	   0.001000; % NG
	2	 1500.0	 0.0	 3	   0.000000	   0.001000	   0.001000; % NG
	2	 1500.0	 0.0	 3	   0.000000	   0.001000	   0.001000; % NG
	2	 1500.0	 0.0	 3	   0.008342	  12.388300	 382.239100; % NG
	2	 1500.0	 0.0	 3	   0.008342	  12.388300	 382.239100; % NG
	2	 1500.0	 0.0	 3	   0.004895	  11.849500	 665.109400; % COW
	2	 1500.0	 0.0	 3	   0.000000	 130.000000	 400.684900; % NG
	2	 1500.0	 0.0	 3	   0.000000	 130.000000	 400.684900; % PEL
	2	 1500.0	 0.0	 3	   0.014142	  16.081100	 212.307600; % NG
	2	 1500.0	 0.0	 3	   0.014142	  16.081100	 212.307600; % NG
	2	 1500.0	 0.0	 3	   0.000000	 130.000000	 400.684900; % COW
	2	 1500.0	 0.0	 3	   0.000000	 130.000000	 400.684900; % PEL
	2	 1500.0	 0.0	 3	   0.014142	  16.081100	 212.307600; % NG
	2	 1500.0	 0.0	 3	   0.014142	  16.081100	 212.307600; % NG
	2	 1500.0	 0.0	 3	   0.052672	  43.661500	 781.521000; % NG
	2	 1500.0	 0.0	 3	   0.052672	  43.661500	 781.521000; % NG
	2	 1500.0	 0.0	 3	   0.052672	  43.661500	 781.521000; % NG
	2	 1500.0	 0.0	 3	   0.007170	  48.580400	 832.757500; % NG
	2	 1500.0	 0.0	 3	   0.007170	  48.580400	 832.757500; % NG
	2	 1500.0	 0.0	 3	   0.007170	  48.580400	 832.757500; % NG
	2	 1500.0	 0.0	 3	   0.000000	   0.000000	   0.000000; % SYNC
	2	 1500.0	 0.0	 3	   0.328412	  56.564000	  86.385200; % COW
	2	 1500.0	 0.0	 3	   0.328412	  56.564000	  86.385200; % NG
	2	 1500.0	 0.0	 3	   0.328412	  56.564000	  86.385200; % NG
	2	 1500.0	 0.0	 3	   0.328412	  56.564000	  86.385200; % COW
	2	 1500.0	 0.0	 3	   0.328412	  56.564000	  86.385200; % NG
	2	 1500.0	 0.0	 3	   0.008342	  12.388300	 382.239100; % NG
	2	 1500.0	 0.0	 3	   0.008342	  12.388300	 382.239100; % NG
	2	 1500.0	 0.0	 3	   0.000213	   4.423100	 395.374900; % NG
	2	 1500.0	 0.0	 3	   0.000213	   4.423100	 395.374900; % NG
	2	 1500.0	 0.0	 3	   0.000000	   0.001000	   0.001000; % NG
	2	 1500.0	 0.0	 3	   0.000000	   0.001000	   0.001000; % NG
	2	 1500.0	 0.0	 3	   0.000000	   0.001000	   0.001000; % NG
	2	 1500.0	 0.0	 3	   0.000000	   0.001000	   0.001000; % NG
	2	 1500.0	 0.0	 3	   0.000000	   0.001000	   0.001000; % NG
	2	 1500.0	 0.0	 3	   0.000000	   0.001000	   0.001000; % NG
	2	 1500.0	 0.0	 3	   0.008342	  12.388300	 382.239100; % NG
	2	 1500.0	 0.0	 3	   0.008342	  12.388300	 382.239100; % NG
	2	 1500.0	 0.0	 3	   0.004895	  11.849500	 665.109400; % NG
	2	 1500.0	 0.0	 3	   0.000000	 130.000000	 400.684900; % NG
	2	 1500.0	 0.0	 3	   0.000000	 130.000000	 400.684900; % PEL
	2	 1500.0	 0.0	 3	   0.014142	  16.081100	 212.307600; % PEL
	2	 1500.0	 0.0	 3	   0.014142	  16.081100	 212.307600; % NG
	2	 1500.0	 0.0	 3	   0.000000	 130.000000	 400.684900; % NG
	2	 1500.0	 0.0	 3	   0.000000	 130.000000	 400.684900; % PEL
	2	 1500.0	 0.0	 3	   0.014142	  16.081100	 212.307600; % PEL
	2	 1500.0	 0.0	 3	   0.014142	  16.081100	 212.307600; % NG
	2	 1500.0	 0.0	 3	   0.052672	  43.661500	 781.521000; % COW
	2	 1500.0	 0.0	 3	   0.052672	  43.661500	 781.521000; % NG
	2	 1500.0	 0.0	 3	   0.052672	  43.661500	 781.521000; % COW
	2	 1500.0	 0.0	 3	   0.007170	  48.580400	 832.757500; % NG
	2	 1500.0	 0.0	 3	   0.007170	  48.580400	 832.757500; % NG
	2	 1500.0	 0.0	 3	   0.007170	  48.580400	 832.757500; % NG
	2	 1500.0	 0.0	 3	   0.000000	   0.000000	   0.000000; % SYNC
	2	 1500.0	 0.0	 3	   0.328412	  56.564000	  86.385200; % COW
	2	 1500.0	 0.0	 3	   0.328412	  56.564000	  86.385200; % COW
	2	 1500.0	 0.0	 3	   0.328412	  56.564000	  86.385200; % NG
	2	 1500.0	 0.0	 3	   0.328412	  56.564000	  86.385200; % NG
	2	 1500.0	 0.0	 3	   0.328412	  56.564000	  86.385200; % NG
	2	 1500.0	 0.0	 3	   0.008342	  12.388300	 382.239100; % NG
	2	 1500.0	 0.0	 3	   0.008342	  12.388300	 382.239100; % NG
	2	 1500.0	 0.0	 3	   0.000213	   4.423100	 395.374900; % COW
	2	 1500.0	 0.0	 3	   0.000213	   4.423100	 395.374900; % COW
	2	 1500.0	 0.0	 3	   0.000000	   0.001000	   0.001000; % PEL
	2	 1500.0	 0.0	 3	   0.000000	   0.001000	   0.001000; % NG
	2	 1500.0	 0.0	 3	   0.000000	   0.001000	   0.001000; % NG
	2	 1500.0	 0.0	 3	   0.000000	   0.001000	   0.001000; % NG
	2	 1500.0	 0.0	 3	   0.000000	   0.001000	   0.001000; % NG
	2	 1500.0	 0.0	 3	   0.000000	   0.001000	   0.001000; % NG
	2	 1500.0	 0.0	 3	   0.008342	  12.388300	 382.239100; % NG
	2	 1500.0	 0.0	 3	   0.008342	  12.388300	 382.239100; % NG
	2	 1500.0	 0.0	 3	   0.004895	  11.849500	 665.109400; % NG
];

%% branch data
%	fbus	tbus	r	x	b	rateA	rateB	rateC	ratio	angle	status	angmin	angmax
mpc.branch = [
	101	 102	 0.003	 0.014	 0.461	 175.0	 193.0	 200.0	 0.0	 0.0	 1	 -30.0	 30.0;
	101	 103	 0.055	 0.211	 0.057	 175.0	 208.0	 220.0	 0.0	 0.0	 1	 -30.0	 30.0;
	101	 105	 0.022	 0.085	 0.023	 175.0	 208.0	 220.0	 0.0	 0.0	 1	 -30.0	 30.0;
	102	 104	 0.033	 0.127	 0.034	 175.0	 208.0	 220.0	 0.0	 0.0	 1	 -30.0	 30.0;
	102	 106	 0.05	 0.192	 0.052	 175.0	 208.0	 220.0	 0.0	 0.0	 1	 -30.0	 30.0;
	103	 109	 0.031	 0.119	 0.032	 175.0	 208.0	 220.0	 0.0	 0.0	 1	 -30.0	 30.0;
	103	 124	 0.002	 0.084	 0.0	 400.0	 510.0	 600.0	 1.015	 0.0	 1	 -30.0	 30.0;
	104	 109	 0.027	 0.104	 0.028	 175.0	 208.0	 220.0	 0.0	 0.0	 1	 -30.0	 30.0;
	105	 110	 0.023	 0.088	 0.024	 175.0	 208.0	 220.0	 0.0	 0.0	 1	 -30.0	 30.0;
	106	 110	 0.014	 0.061	 2.459	 175.0	 193.0	 200.0	 0.0	 0.0	 1	 -30.0	 30.0;
	107	 108	 0.016	 0.061	 0.017	 175.0	 208.0	 220.0	 0.0	 0.0	 1	 -30.0	 30.0;
	107	 203	 0.042	 0.161	 0.044	 175.0	 208.0	 220.0	 0.0	 0.0	 1	 -30.0	 30.0;
	108	 109	 0.043	 0.165	 0.045	 175.0	 208.0	 220.0	 0.0	 0.0	 1	 -30.0	 30.0;
	108	 110	 0.043	 0.165	 0.045	 175.0	 208.0	 220.0	 0.0	 0.0	 1	 -30.0	 30.0;
	109	 111	 0.002	 0.084	 0.0	 400.0	 510.0	 600.0	 1.03	 0.0	 1	 -30.0	 30.0;
	109	 112	 0.002	 0.084	 0.0	 400.0	 510.0	 600.0	 1.03	 0.0	 1	 -30.0	 30.0;
	110	 111	 0.002	 0.084	 0.0	 400.0	 510.0	 600.0	 1.015	 0.0	 1	 -30.0	 30.0;
	110	 112	 0.002	 0.084	 0.0	 400.0	 510.0	 600.0	 1.015	 0.0	 1	 -30.0	 30.0;
	111	 113	 0.006	 0.048	 0.1	 500.0	 600.0	 625.0	 0.0	 0.0	 1	 -30.0	 30.0;
	111	 114	 0.005	 0.042	 0.088	 500.0	 600.0	 625.0	 0.0	 0.0	 1	 -30.0	 30.0;
	112	 113	 0.006	 0.048	 0.1	 500.0	 600.0	 625.0	 0.0	 0.0	 1	 -30.0	 30.0;
	112	 123	 0.012	 0.097	 0.203	 500.0	 600.0	 625.0	 0.0	 0.0	 1	 -30.0	 30.0;
	113	 123	 0.011	 0.087	 0.182	 500.0	 600.0	 625.0	 0.0	 0.0	 1	 -30.0	 30.0;
	113	 215	 0.01	 0.075	 0.158	 500.0	 600.0	 625.0	 0.0	 0.0	 1	 -30.0	 30.0;
	114	 116	 0.005	 0.059	 0.082	 500.0	 600.0	 625.0	 0.0	 0.0	 1	 -30.0	 30.0;
	115	 116	 0.002	 0.017	 0.036	 500.0	 600.0	 625.0	 0.0	 0.0	 1	 -30.0	 30.0;
	115	 121	 0.006	 0.049	 0.103	 500.0	 600.0	 625.0	 0.0	 0.0	 1	 -30.0	 30.0;
	115	 121	 0.006	 0.049	 0.103	 500.0	 600.0	 625.0	 0.0	 0.0	 1	 -30.0	 30.0;
	115	 124	 0.007	 0.052	 0.109	 500.0	 600.0	 625.0	 0.0	 0.0	 1	 -30.0	 30.0;
	116	 117	 0.003	 0.026	 0.055	 500.0	 600.0	 625.0	 0.0	 0.0	 1	 -30.0	 30.0;
	116	 119	 0.003	 0.023	 0.049	 500.0	 600.0	 625.0	 0.0	 0.0	 1	 -30.0	 30.0;
	117	 118	 0.002	 0.014	 0.03	 500.0	 600.0	 625.0	 0.0	 0.0	 1	 -30.0	 30.0;
	117	 122	 0.014	 0.105	 0.221	 500.0	 600.0	 625.0	 0.0	 0.0	 1	 -30.0	 30.0;
	118	 121	 0.003	 0.026	 0.055	 500.0	 600.0	 625.0	 0.0	 0.0	 1	 -30.0	 30.0;
	118	 121	 0.003	 0.026	 0.055	 500.0	 600.0	 625.0	 0.0	 0.0	 1	 -30.0	 30.0;
	119	 120	 0.005	 0.04	 0.083	 500.0	 600.0	 625.0	 0.0	 0.0	 1	 -30.0	 30.0;
	119	 120	 0.005	 0.04	 0.083	 500.0	 600.0	 625.0	 0.0	 0.0	 1	 -30.0	 30.0;
	120	 123	 0.003	 0.022	 0.046	 500.0	 600.0	 625.0	 0.0	 0.0	 1	 -30.0	 30.0;
	120	 123	 0.003	 0.022	 0.046	 500.0	 600.0	 625.0	 0.0	 0.0	 1	 -30.0	 30.0;
	121	 122	 0.009	 0.068	 0.142	 500.0	 600.0	 625.0	 0.0	 0.0	 1	 -30.0	 30.0;
	123	 217	 0.01	 0.074	 0.155	 500.0	 600.0	 625.0	 0.0	 0.0	 1	 -30.0	 30.0;
	201	 202	 0.003	 0.014	 0.461	 175.0	 193.0	 200.0	 0.0	 0.0	 1	 -30.0	 30.0;
	201	 203	 0.055	 0.211	 0.057	 175.0	 208.0	 220.0	 0.0	 0.0	 1	 -30.0	 30.0;
	201	 205	 0.022	 0.085	 0.023	 175.0	 208.0	 220.0	 0.0	 0.0	 1	 -30.0	 30.0;
	202	 204	 0.033	 0.127	 0.034	 175.0	 208.0	 220.0	 0.0	 0.0	 1	 -30.0	 30.0;
	202	 206	 0.05	 0.192	 0.052	 175.0	 208.0	 220.0	 0.0	 0.0	 1	 -30.0	 30.0;
	203	 209	 0.031	 0.119	 0.032	 175.0	 208.0	 220.0	 0.0	 0.0	 1	 -30.0	 30.0;
	203	 224	 0.002	 0.084	 0.0	 400.0	 510.0	 600.0	 1.015	 0.0	 1	 -30.0	 30.0;
	204	 209	 0.027	 0.104	 0.028	 175.0	 208.0	 220.0	 0.0	 0.0	 1	 -30.0	 30.0;
	205	 210	 0.023	 0.088	 0.024	 175.0	 208.0	 220.0	 0.0	 0.0	 1	 -30.0	 30.0;
	206	 210	 0.014	 0.061	 2.459	 175.0	 193.0	 200.0	 0.0	 0.0	 1	 -30.0	 30.0;
	207	 208	 0.016	 0.061	 0.017	 175.0	 208.0	 220.0	 0.0	 0.0	 1	 -30.0	 30.0;
	208	 209	 0.043	 0.165	 0.045	 175.0	 208.0	 220.0	 0.0	 0.0	 1	 -30.0	 30.0;
	208	 210	 0.043	 0.165	 0.045	 175.0	 208.0	 220.0	 0.0	 0.0	 1	 -30.0	 30.0;
	209	 211	 0.002	 0.084	 0.0	 400.0	 510.0	 600.0	 1.03	 0.0	 1	 -30.0	 30.0;
	209	 212	 0.002	 0.084	 0.0	 400.0	 510.0	 600.0	 1.03	 0.0	 1	 -30.0	 30.0;
	210	 211	 0.002	 0.084	 0.0	 400.0	 510.0	 600.0	 1.015	 0.0	 1	 -30.0	 30.0;
	210	 212	 0.002	 0.084	 0.0	 400.0	 510.0	 600.0	 1.015	 0.0	 1	 -30.0	 30.0;
	211	 213	 0.006	 0.048	 0.1	 500.0	 600.0	 625.0	 0.0	 0.0	 1	 -30.0	 30.0;
	211	 214	 0.005	 0.042	 0.088	 500.0	 600.0	 625.0	 0.0	 0.0	 1	 -30.0	 30.0;
	212	 213	 0.006	 0.048	 0.1	 500.0	 600.0	 625.0	 0.0	 0.0	 1	 -30.0	 30.0;
	212	 223	 0.012	 0.097	 0.203	 500.0	 600.0	 625.0	 0.0	 0.0	 1	 -30.0	 30.0;
	213	 223	 0.011	 0.087	 0.182	 500.0	 600.0	 625.0	 0.0	 0.0	 1	 -30.0	 30.0;
	214	 216	 0.005	 0.059	 0.082	 500.0	 600.0	 625.0	 0.0	 0.0	 1	 -30.0	 30.0;
	215	 216	 0.002	 0.017	 0.036	 500.0	 600.0	 625.0	 0.0	 0.0	 1	 -30.0	 30.0;
	215	 221	 0.006	 0.049	 0.103	 500.0	 600.0	 625.0	 0.0	 0.0	 1	 -30.0	 30.0;
	215	 221	 0.006	 0.049	 0.103	 500.0	 600.0	 625.0	 0.0	 0.0	 1	 -30.0	 30.0;
	215	 224	 0.007	 0.052	 0.109	 500.0	 600.0	 625.0	 0.0	 0.0	 1	 -30.0	 30.0;
	216	 217	 0.003	 0.026	 0.055	 500.0	 600.0	 625.0	 0.0	 0.0	 1	 -30.0	 30.0;
	216	 219	 0.003	 0.023	 0.049	 500.0	 600.0	 625.0	 0.0	 0.0	 1	 -30.0	 30.0;
	217	 218	 0.002	 0.014	 0.03	 500.0	 600.0	 625.0	 0.0	 0.0	 1	 -30.0	 30.0;
	217	 222	 0.014	 0.105	 0.221	 500.0	 600.0	 625.0	 0.0	 0.0	 1	 -30.0	 30.0;
	218	 221	 0.003	 0.026	 0.055	 500.0	 600.0	 625.0	 0.0	 0.0	 1	 -30.0	 30.0;
	218	 221	 0.003	 0.026	 0.055	 500.0	 600.0	 625.0	 0.0	 0.0	 1	 -30.0	 30.0;
	219	 220	 0.005	 0.04	 0.083	 500.0	 600.0	 625.0	 0.0	 0.0	 1	 -30.0	 30.0;
	219	 220	 0.005	 0.04	 0.083	 500.0	 600.0	 625.0	 0.0	 0.0	 1	 -30.0	 30.0;
	220	 223	 0.003	 0.022	 0.046	 500.0	 600.0	 625.0	 0.0	 0.0	 1	 -30.0	 30.0;
	220	 223	 0.003	 0.022	 0.046	 500.0	 600.0	 625.0	 0.0	 0.0	 1	 -30.0	 30.0;
	221	 222	 0.009	 0.068	 0.142	 500.0	 600.0	 625.0	 0.0	 0.0	 1	 -30.0	 30.0;
	301	 302	 0.003	 0.014	 0.461	 175.0	 193.0	 200.0	 0.0	 0.0	 1	 -30.0	 30.0;
	301	 303	 0.055	 0.211	 0.057	 175.0	 208.0	 220.0	 0.0	 0.0	 1	 -30.0	 30.0;
	301	 305	 0.022	 0.085	 0.023	 175.0	 208.0	 220.0	 0.0	 0.0	 1	 -30.0	 30.0;
	302	 304	 0.033	 0.127	 0.034	 175.0	 208.0	 220.0	 0.0	 0.0	 1	 -30.0	 30.0;
	302	 306	 0.05	 0.192	 0.052	 175.0	 208.0	 220.0	 0.0	 0.0	 1	 -30.0	 30.0;
	303	 309	 0.031	 0.119	 0.032	 175.0	 208.0	 220.0	 0.0	 0.0	 1	 -30.0	 30.0;
	303	 324	 0.002	 0.084	 0.0	 400.0	 510.0	 600.0	 1.015	 0.0	 1	 -30.0	 30.0;
	304	 309	 0.027	 0.104	 0.028	 175.0	 208.0	 220.0	 0.0	 0.0	 1	 -30.0	 30.0;
	305	 310	 0.023	 0.088	 0.024	 175.0	 208.0	 220.0	 0.0	 0.0	 1	 -30.0	 30.0;
	306	 310	 0.014	 0.061	 2.459	 175.0	 193.0	 200.0	 0.0	 0.0	 1	 -30.0	 30.0;
	307	 308	 0.016	 0.061	 0.017	 175.0	 208.0	 220.0	 0.0	 0.0	 1	 -30.0	 30.0;
	308	 309	 0.043	 0.165	 0.045	 175.0	 208.0	 220.0	 0.0	 0.0	 1	 -30.0	 30.0;
	308	 310	 0.043	 0.165	 0.045	 175.0	 208.0	 220.0	 0.0	 0.0	 1	 -30.0	 30.0;
	309	 311	 0.002	 0.084	 0.0	 400.0	 510.0	 600.0	 1.03	 0.0	 1	 -30.0	 30.0;
	309	 312	 0.002	 0.084	 0.0	 400.0	 510.0	 600.0	 1.03	 0.0	 1	 -30.0	 30.0;
	310	 311	 0.002	 0.084	 0.0	 400.0	 510.0	 600.0	 1.015	 0.0	 1	 -30.0	 30.0;
	310	 312	 0.002	 0.084	 0.0	 400.0	 510.0	 600.0	 1.015	 0.0	 1	 -30.0	 30.0;
	311	 313	 0.006	 0.048	 0.1	 500.0	 600.0	 625.0	 0.0	 0.0	 1	 -30.0	 30.0;
	311	 314	 0.005	 0.042	 0.088	 500.0	 600.0	 625.0	 0.0	 0.0	 1	 -30.0	 30.0;
	312	 313	 0.006	 0.048	 0.1	 500.0	 600.0	 625.0	 0.0	 0.0	 1	 -30.0	 30.0;
	312	 323	 0.012	 0.097	 0.203	 500.0	 600.0	 625.0	 0.0	 0.0	 1	 -30.0	 30.0;
	313	 323	 0.011	 0.087	 0.182	 500.0	 600.0	 625.0	 0.0	 0.0	 1	 -30.0	 30.0;
	314	 316	 0.005	 0.059	 0.082	 500.0	 600.0	 625.0	 0.0	 0.0	 1	 -30.0	 30.0;
	315	 316	 0.002	 0.017	 0.036	 500.0	 600.0	 625.0	 0.0	 0.0	 1	 -30.0	 30.0;
	315	 321	 0.006	 0.049	 0.103	 500.0	 600.0	 625.0	 0.0	 0.0	 1	 -30.0	 30.0;
	315	 321	 0.006	 0.049	 0.103	 500.0	 600.0	 625.0	 0.0	 0.0	 1	 -30.0	 30.0;
	315	 324	 0.007	 0.052	 0.109	 500.0	 600.0	 625.0	 0.0	 0.0	 1	 -30.0	 30.0;
	316	 317	 0.003	 0.026	 0.055	 500.0	 600.0	 625.0	 0.0	 0.0	 1	 -30.0	 30.0;
	316	 319	 0.003	 0.023	 0.049	 500.0	 600.0	 625.0	 0.0	 0.0	 1	 -30.0	 30.0;
	317	 318	 0.002	 0.014	 0.03	 500.0	 600.0	 625.0	 0.0	 0.0	 1	 -30.0	 30.0;
	317	 322	 0.014	 0.105	 0.221	 500.0	 600.0	 625.0	 0.0	 0.0	 1	 -30.0	 30.0;
	318	 321	 0.003	 0.026	 0.055	 500.0	 600.0	 625.0	 0.0	 0.0	 1	 -30.0	 30.0;
	318	 321	 0.003	 0.026	 0.055	 500.0	 600.0	 625.0	 0.0	 0.0	 1	 -30.0	 30.0;
	319	 320	 0.005	 0.04	 0.083	 500.0	 600.0	 625.0	 0.0	 0.0	 1	 -30.0	 30.0;
	319	 320	 0.005	 0.04	 0.083	 500.0	 600.0	 625.0	 0.0	 0.0	 1	 -30.0	 30.0;
	320	 323	 0.003	 0.022	 0.046	 500.0	 600.0	 625.0	 0.0	 0.0	 1	 -30.0	 30.0;
	320	 323	 0.003	 0.022	 0.046	 500.0	 600.0	 625.0	 0.0	 0.0	 1	 -30.0	 30.0;
	321	 322	 0.009	 0.068	 0.142	 500.0	 600.0	 625.0	 0.0	 0.0	 1	 -30.0	 30.0;
	325	 121	 0.012	 0.097	 0.203	 500.0	 600.0	 625.0	 0.0	 0.0	 1	 -30.0	 30.0;
	318	 223	 0.013	 0.104	 0.218	 500.0	 600.0	 625.0	 0.0	 0.0	 1	 -30.0	 30.0;
	323	 325	 0.0	 0.009	 0.0	 722.0	 893.0	 893.0	 0.0	 0.0	 1	 -30.0	 30.0;
];

% INFO    : === Translation Options ===
% INFO    : Load Model:                  from file ./pglib_opf_case73_ieee_rts.m.api.sol
% INFO    : Gen Active Capacity Model:   stat
% INFO    : Gen Reactive Capacity Model: al50ag
% INFO    : Gen Active Cost Model:       stat
% INFO    : 