%%%%%%%%%%%%%%%%%%%%%%%%%%%%%%%%%%%%%%%%%%%%%%%%%%%%%%%%%%%%%%%%%%%%%%%%%%%
%%%%                                                                  %%%%%
%%%%    IEEE PES Power Grid Library - Optimal Power Flow - v17.07     %%%%%
%%%%          (https://github.com/power-grid-lib/pglib-opf)           %%%%%
%%%%             Benchmark Group - Active Power Increase              %%%%%
%%%%                         27 - June - 2017                         %%%%%
%%%%                                                                  %%%%%
%%%%%%%%%%%%%%%%%%%%%%%%%%%%%%%%%%%%%%%%%%%%%%%%%%%%%%%%%%%%%%%%%%%%%%%%%%%
function mpc = pglib_opf_case2868_rte__api
mpc.version = '2';
mpc.baseMVA = 100.0;

%% bus data
%	bus_i	type	Pd	Qd	Gs	Bs	area	Vm	Va	baseKV	zone	Vmax	Vmin
mpc.bus = [
	1	 1	 -18.50	 0.00	 0.0	 0.0	 1	    1.05075	  -14.39767	 63.0	 1	    1.06349	    0.93651;
	2	 1	 14.17	 0.60	 0.0	 0.0	 1	    1.08325	  -26.07940	 225.0	 1	    1.08889	    0.88889;
	3	 1	 0.00	 0.00	 0.0	 0.0	 1	    1.09771	   -1.66478	 380.0	 1	    1.10263	    1.00000;
	4	 1	 0.00	 0.00	 0.0	 0.0	 1	    1.01735	  -14.04754	 63.0	 1	    1.07937	    0.92063;
	5	 1	 0.20	 -0.20	 0.0	 0.0	 1	    0.98420	   -6.78773	 45.0	 1	    1.00000	    0.88889;
	6	 1	 5.60	 -19.00	 0.0	 0.0	 1	    0.98492	   -6.82117	 45.0	 1	    1.00000	    0.88889;
	7	 1	 268.45	 7.60	 0.0	 0.0	 1	    1.07809	  -21.68807	 225.0	 1	    1.08444	    1.00000;
	8	 1	 82.36	 7.60	 0.0	 0.0	 1	    1.01982	  -13.13446	 63.0	 1	    1.06349	    0.96825;
	10	 1	 0.00	 0.00	 0.0	 0.0	 1	    1.09362	   -6.12726	 150.0	 1	    1.10667	    0.90000;
	11	 1	 58.95	 0.90	 0.0	 0.0	 1	    1.07103	  -14.23804	 225.0	 1	    1.08889	    0.93333;
	2571	 1	 40.82	 14.40	 0.0	 0.0	 1	    1.07858	  -15.25807	 225.0	 1	    1.08889	    0.93333;
	12	 1	 0.00	 0.00	 0.0	 0.0	 1	    1.08761	  -14.01338	 380.0	 1	    1.10526	    1.00000;
	2572	 1	 0.00	 0.00	 0.0	 0.0	 1	    1.09960	  -13.98149	 380.0	 1	    1.10526	    1.00000;
	13	 1	 0.00	 0.00	 0.0	 0.0	 1	    1.07304	  -29.95389	 225.0	 1	    1.09067	    1.00000;
	14	 1	 0.20	 -1.10	 0.0	 0.0	 1	    1.00407	  -23.38815	 63.0	 1	    1.06349	    0.93651;
	15	 1	 10.30	 -0.20	 0.0	 0.0	 1	    1.02317	  -20.23388	 63.0	 1	    1.06349	    0.93651;
	16	 1	 227.87	 54.40	 0.0	 0.0	 1	    1.06260	  -21.31579	 225.0	 1	    1.08889	    0.93333;
	17	 1	 65.43	 13.10	 0.0	 0.0	 1	    1.08549	  -30.56885	 225.0	 1	    1.08889	    1.00000;
	18	 1	 81.16	 23.20	 0.0	 0.0	 1	    1.08210	  -28.51287	 225.0	 1	    1.08962	    1.00000;
	19	 2	 0.00	 0.00	 0.0	 0.0	 1	    1.03872	   -8.69433	 63.0	 1	    1.08661	    0.92063;
	20	 1	 180.69	 40.00	 0.0	 0.0	 1	    1.08527	  -30.57025	 225.0	 1	    1.08889	    1.00000;
	21	 1	 93.76	 6.20	 0.0	 0.0	 1	    1.08771	  -21.50299	 225.0	 1	    1.08889	    0.88889;
	22	 1	 15.00	 -9.40	 0.0	 0.0	 1	    1.00403	  -30.15837	 63.0	 1	    1.07249	    0.93651;
	23	 1	 61.11	 6.00	 0.0	 0.0	 1	    1.00737	  -22.22833	 63.0	 1	    1.06349	    0.93651;
	24	 1	 0.00	 0.00	 0.0	 0.0	 1	    1.08889	  -15.57267	 225.0	 1	    1.08889	    1.00000;
	2573	 1	 0.00	 0.00	 0.0	 0.0	 1	    1.08889	  -15.69588	 225.0	 1	    1.08889	    1.00000;
	25	 1	 78.16	 1.60	 0.0	 0.0	 1	    1.08748	  -22.11547	 225.0	 1	    1.08889	    0.88889;
	26	 1	 1.60	 -4.20	 0.0	 0.0	 1	    1.07874	  -16.85169	 225.0	 1	    1.09649	    0.98667;
	27	 1	 51.38	 2.30	 0.0	 0.0	 1	    1.02222	  -22.53796	 63.0	 1	    1.06349	    0.93651;
	28	 1	 47.30	 15.50	 0.0	 0.0	 1	    1.08709	  -26.98640	 225.0	 1	    1.08889	    1.00000;
	2574	 1	 50.66	 12.40	 0.0	 0.0	 1	    1.08707	  -26.98684	 225.0	 1	    1.08889	    1.00000;
	29	 1	 13.69	 0.50	 0.0	 0.0	 1	    1.01959	  -20.46017	 63.0	 1	    1.06349	    0.93651;
	30	 1	 87.28	 36.50	 0.0	 0.0	 1	    1.08106	  -25.30841	 225.0	 1	    1.08889	    1.00000;
	31	 1	 2.70	 -1.40	 0.0	 0.0	 1	    1.04200	  -10.91643	 63.0	 1	    1.07211	    0.93651;
	32	 1	 13.80	 -0.40	 0.0	 0.0	 1	    1.01274	  -30.02094	 63.0	 1	    1.06349	    0.93651;
	33	 1	 2.00	 -0.50	 0.0	 0.0	 1	    0.97591	   -7.96657	 45.0	 1	    1.00000	    0.88889;
	34	 1	 0.40	 0.00	 0.0	 0.0	 1	    0.98394	   -6.81525	 45.0	 1	    1.00000	    0.88889;
	35	 1	 36.50	 3.00	 0.0	 0.0	 1	    1.02705	  -15.32579	 63.0	 1	    1.06349	    0.96825;
	36	 1	 1.90	 -3.10	 0.0	 0.0	 1	    1.00000	  -16.28627	 45.0	 1	    1.00000	    0.88889;
	37	 1	 22.69	 0.90	 0.0	 0.0	 1	    1.05716	  -14.06124	 63.0	 1	    1.06349	    0.93651;
	38	 2	 0.00	 0.00	 0.0	 0.0	 1	    1.03971	    0.39296	 63.0	 1	    1.07937	    0.95238;
	39	 1	 119.22	 18.80	 0.0	 0.0	 1	    1.07297	  -26.99164	 225.0	 1	    1.08934	    0.98667;
	40	 1	 46.46	 0.90	 0.0	 0.0	 1	    1.07106	  -26.58566	 225.0	 1	    1.08889	    0.88889;
	41	 1	 107.81	 13.00	 0.0	 0.0	 1	    1.08052	  -21.07455	 225.0	 1	    1.08444	    1.00000;
	42	 1	 76.72	 9.70	 0.0	 0.0	 1	    1.02659	  -13.46562	 63.0	 1	    1.06370	    0.93651;
	43	 1	 0.00	 0.00	 0.0	 0.0	 1	    1.05510	  -12.76775	 225.0	 1	    1.08889	    0.93333;
	44	 1	 33.10	 -6.50	 0.0	 0.0	 1	    1.03673	   -7.42837	 63.0	 1	    1.06349	    0.96825;
	45	 1	 202.18	 34.90	 0.0	 0.0	 1	    1.06895	  -27.60121	 225.0	 1	    1.08889	    1.00000;
	46	 1	 0.00	 0.00	 0.0	 0.0	 1	    1.09789	   -1.64918	 380.0	 1	    1.10526	    1.00000;
	2575	 1	 0.00	 0.00	 0.0	 0.0	 1	    1.09776	   -1.64970	 380.0	 1	    1.10526	    1.00000;
	47	 1	 35.42	 4.50	 0.0	 0.0	 1	    1.03893	  -15.46182	 63.0	 1	    1.06606	    0.93651;
	48	 1	 1.60	 0.00	 0.0	 0.0	 1	    1.04521	  -13.26456	 63.0	 1	    1.06735	    0.93651;
	49	 1	 17.89	 10.40	 0.0	 0.0	 1	    1.05169	   -2.76388	 63.0	 1	    1.06349	    0.96825;
	2576	 1	 11.89	 7.20	 0.0	 0.0	 1	    1.04400	   -5.15527	 63.0	 1	    1.06349	    0.96825;
	50	 1	 0.00	 0.00	 0.0	 0.0	 1	    1.08092	   -4.70382	 225.0	 1	    1.08444	    1.00000;
	51	 1	 137.95	 20.20	 0.0	 0.0	 1	    1.08096	   -7.60531	 225.0	 1	    1.08444	    1.00000;
	52	 1	 0.00	 0.00	 0.0	 0.0	 1	    1.08670	  -30.36324	 225.0	 1	    1.08889	    1.00000;
	2942	 1	 127.26	 29.60	 0.0	 0.0	 1	    1.04719	  -31.35214	 225.0	 1	    1.08889	    1.00000;
	53	 2	 5.70	 -6.60	 0.0	 0.0	 1	    1.02040	  -13.44750	 63.0	 1	    1.06349	    0.96825;
	54	 1	 0.00	 0.00	 0.0	 0.0	 1	    1.06449	  -12.45464	 150.0	 1	    1.08000	    0.96667;
	55	 1	 78.76	 18.00	 0.0	 80.0	 1	    1.05080	  -15.56307	 225.0	 1	    1.09459	    1.00000;
	56	 1	 0.00	 0.00	 0.0	 0.0	 1	    1.06417	  -12.29865	 380.0	 1	    1.10526	    1.00000;
	57	 1	 175.76	 39.10	 0.0	 0.0	 1	    1.06408	  -31.65783	 225.0	 1	    1.08889	    0.98667;
	59	 1	 94.49	 21.10	 0.0	 0.0	 1	    1.08812	  -21.87102	 225.0	 1	    1.08889	    0.96889;
	60	 1	 150.31	 37.60	 0.0	 0.0	 1	    1.09200	  -19.42804	 380.0	 1	    1.10526	    1.00000;
	61	 1	 7.20	 1.00	 0.0	 0.0	 1	    1.02255	  -14.79493	 63.0	 1	    1.06349	    0.93651;
	63	 1	 43.34	 4.70	 0.0	 7.7	 1	    1.02888	   -1.15528	 63.0	 1	    1.06349	    0.96825;
	2577	 1	 0.00	 0.00	 0.0	 0.0	 1	    1.02892	   -2.44613	 63.0	 1	    1.06349	    0.96825;
	64	 1	 63.99	 13.40	 0.0	 0.0	 1	    1.08813	  -18.19658	 225.0	 1	    1.08889	    0.93333;
	65	 1	 0.00	 0.00	 0.0	 0.0	 1	    1.02890	   -2.44711	 63.0	 1	    1.06349	    0.96825;
	66	 1	 43.40	 -0.70	 0.0	 0.0	 1	    0.95227	   -6.63391	 45.0	 1	    1.00000	    0.88889;
	2578	 2	 0.00	 0.00	 0.0	 0.0	 1	    0.99861	  -18.42278	 45.0	 1	    1.00000	    0.88889;
	67	 1	 49.58	 12.80	 0.0	 0.0	 1	    1.07441	  -25.75688	 225.0	 1	    1.08889	    0.88889;
	2579	 1	 46.22	 8.50	 0.0	 0.0	 1	    1.07461	  -25.75037	 225.0	 1	    1.08889	    0.88889;
	68	 1	 23.53	 3.70	 0.0	 0.0	 1	    1.07398	  -28.94755	 20.0	 1	    1.20000	    0.80000;
	69	 1	 385.02	 74.90	 0.0	 0.0	 1	    1.07403	  -28.93793	 225.0	 1	    1.08685	    1.00000;
	70	 1	 140.90	 -22.30	 0.0	 0.0	 1	    1.08714	  -26.77772	 225.0	 1	    1.08889	    1.00000;
	71	 2	 0.00	 0.00	 0.0	 0.0	 1	    1.10565	   -6.62099	 150.0	 1	    1.10885	    0.90000;
	72	 1	 0.00	 0.00	 0.0	 0.0	 1	    1.08845	  -31.83241	 225.0	 1	    1.08889	    1.00000;
	2580	 1	 0.00	 0.00	 0.0	 0.0	 1	    1.08845	  -31.83241	 225.0	 1	    1.08889	    1.00000;
	74	 1	 0.00	 0.00	 0.0	 0.0	 1	    1.08844	  -31.83240	 225.0	 1	    1.08889	    1.00000;
	75	 1	 18.73	 3.00	 0.0	 0.0	 1	    1.03806	  -16.00741	 63.0	 1	    1.06349	    0.93651;
	76	 2	 0.00	 0.00	 0.0	 0.0	 1	    0.99277	   -6.68324	 45.0	 1	    1.00000	    0.88889;
	77	 1	 7.68	 0.30	 0.0	 0.0	 1	    1.03533	   -9.15182	 63.0	 1	    1.08481	    0.92063;
	78	 1	 5.76	 2.40	 0.0	 0.0	 1	    1.06880	  -28.19571	 225.0	 1	    1.08889	    1.00000;
	79	 1	 20.89	 1.70	 0.0	 15.0	 1	    1.00908	  -11.22953	 63.0	 1	    1.07937	    0.92063;
	80	 1	 10.00	 -0.60	 0.0	 0.0	 1	    1.02757	  -17.68350	 63.0	 1	    1.08744	    0.92063;
	81	 1	 0.00	 0.00	 0.0	 0.0	 1	    1.06881	  -16.58118	 225.0	 1	    1.08889	    1.00000;
	82	 1	 75.76	 25.30	 0.0	 0.0	 1	    1.06990	  -26.53929	 225.0	 1	    1.08889	    0.88889;
	83	 1	 52.95	 1.90	 0.0	 0.0	 1	    1.00135	  -20.62621	 63.0	 1	    1.06349	    0.96740;
	84	 1	 194.85	 51.10	 0.0	 0.0	 1	    1.07489	  -23.59480	 225.0	 1	    1.08889	    0.96889;
	85	 1	 0.00	 0.00	 0.0	 0.0	 1	    1.08974	  -20.01676	 380.0	 1	    1.10526	    1.00000;
	86	 1	 69.99	 14.10	 0.0	 0.0	 1	    1.01220	  -17.73473	 63.0	 1	    1.06349	    0.96825;
	87	 1	 39.02	 4.60	 0.0	 0.0	 1	    1.02505	   -7.55778	 63.0	 1	    1.06349	    0.96825;
	88	 1	 1.80	 0.70	 0.0	 0.0	 1	    1.03050	   -7.82678	 63.0	 1	    1.06349	    0.96825;
	89	 1	 66.87	 8.30	 0.0	 0.0	 1	    1.03035	   -6.80816	 63.0	 1	    1.06349	    0.96825;
	2581	 1	 36.14	 12.20	 0.0	 0.0	 1	    1.03077	   -6.54461	 63.0	 1	    1.06349	    0.96825;
	90	 1	 0.00	 0.00	 0.0	 0.0	 1	    1.07668	   -6.46068	 225.0	 1	    1.08444	    1.00000;
	2582	 1	 0.00	 0.00	 0.0	 0.0	 1	    1.07660	   -6.49562	 225.0	 1	    1.08444	    1.00000;
	91	 1	 228.23	 8.00	 0.0	 0.0	 1	    1.06687	  -28.09072	 225.0	 1	    1.08889	    1.00000;
	92	 1	 36.80	 -8.50	 0.0	 0.0	 1	    1.08345	  -13.50981	 225.0	 1	    1.09041	    0.93333;
	93	 2	 0.00	 0.00	 0.0	 0.0	 1	    1.10428	   -6.81106	 150.0	 1	    1.10907	    0.90000;
	94	 1	 42.86	 55.70	 0.0	 0.0	 1	    1.08310	   -3.35045	 225.0	 1	    1.08444	    1.00000;
	2583	 1	 40.82	 3.20	 0.0	 0.0	 1	    1.08392	   -3.35685	 225.0	 1	    1.08444	    1.00000;
	95	 1	 0.00	 0.00	 0.0	 0.0	 1	    1.08464	   -3.89102	 225.0	 1	    1.08889	    0.97778;
	96	 1	 19.09	 4.10	 0.0	 0.0	 1	    1.08531	  -25.72794	 225.0	 1	    1.08889	    0.88889;
	97	 1	 48.50	 6.50	 0.0	 0.0	 1	    1.01581	  -15.57629	 63.0	 1	    1.06349	    0.96825;
	98	 1	 -3.50	 -1.60	 0.0	 0.0	 1	    1.07866	  -13.20466	 225.0	 1	    1.08889	    0.93333;
	99	 1	 21.85	 5.50	 0.0	 0.0	 1	    1.07303	  -29.99609	 225.0	 1	    1.08889	    1.00000;
	2584	 1	 39.86	 14.10	 0.0	 0.0	 1	    1.08088	  -28.81189	 225.0	 1	    1.08889	    1.00000;
	100	 1	 -17.20	 -4.30	 0.0	 0.0	 1	    1.06746	  -16.78953	 225.0	 1	    1.08889	    1.00000;
	101	 1	 29.29	 1.90	 0.0	 0.0	 1	    1.08337	  -22.09723	 225.0	 1	    1.08889	    0.98667;
	102	 1	 0.00	 0.00	 0.0	 80.0	 1	    1.08330	  -24.90861	 225.0	 1	    1.08889	    0.88889;
	2585	 1	 0.00	 0.00	 0.0	 0.0	 1	    1.07410	  -25.73409	 225.0	 1	    1.08889	    0.88889;
	103	 1	 0.00	 0.00	 0.0	 0.0	 1	    1.08455	  -21.06472	 380.0	 1	    1.10526	    1.00000;
	104	 1	 89.92	 14.30	 0.0	 0.0	 1	    1.08431	  -27.51442	 225.0	 1	    1.08889	    1.00000;
	2586	 1	 34.82	 6.80	 0.0	 0.0	 1	    1.08384	  -30.30218	 225.0	 1	    1.08889	    1.00000;
	105	 1	 13.69	 9.20	 0.0	 0.0	 1	    1.01772	  -13.89394	 63.0	 1	    1.07937	    0.92063;
	106	 1	 0.00	 0.00	 0.0	 0.0	 1	    1.06849	   -5.42146	 225.0	 1	    1.08889	    0.97778;
	2587	 1	 0.00	 0.00	 0.0	 0.0	 1	    1.06854	   -5.42140	 225.0	 1	    1.08889	    0.97778;
	107	 1	 6.84	 10.30	 0.0	 0.0	 1	    1.04249	   -7.55330	 63.0	 1	    1.06349	    0.96825;
	108	 1	 64.95	 1.90	 0.0	 0.0	 1	    1.06929	   -5.77453	 225.0	 1	    1.08444	    1.00000;
	109	 1	 0.00	 0.00	 0.0	 0.0	 1	    1.08363	  -24.38856	 225.0	 1	    1.08444	    1.00000;
	110	 1	 0.00	 0.00	 0.0	 0.0	 1	    1.10232	  -17.93790	 380.0	 1	    1.10263	    1.00000;
	111	 1	 124.02	 18.00	 0.0	 0.0	 1	    1.08328	  -24.45215	 225.0	 1	    1.08444	    1.00000;
	112	 1	 -1.50	 2.20	 0.0	 0.0	 1	    1.08325	  -28.31805	 225.0	 1	    1.09035	    1.00000;
	2588	 1	 16.50	 -0.10	 0.0	 0.0	 1	    1.08321	  -28.32824	 225.0	 1	    1.09035	    1.00000;
	113	 1	 56.43	 9.80	 0.0	 0.0	 1	    1.08391	  -17.07411	 225.0	 1	    1.08889	    0.88889;
	114	 1	 52.59	 0.60	 0.0	 0.0	 1	    1.01333	  -16.22915	 63.0	 1	    1.06349	    0.93651;
	115	 1	 19.69	 1.20	 0.0	 0.0	 1	    1.08445	  -24.80332	 225.0	 1	    1.08889	    0.88889;
	116	 1	 68.31	 18.90	 0.0	 0.0	 1	    1.07913	  -24.70495	 225.0	 1	    1.08889	    0.88889;
	117	 1	 3.84	 0.40	 0.0	 0.0	 1	    1.03663	   -7.86292	 63.0	 1	    1.06349	    0.96825;
	118	 1	 52.83	 10.00	 0.0	 0.0	 1	    0.98195	  -14.15180	 63.0	 1	    1.07937	    0.92063;
	119	 1	 28.50	 -5.10	 0.0	 0.0	 1	    1.03290	  -17.95182	 63.0	 1	    1.06349	    0.96825;
	120	 2	 0.00	 0.00	 0.0	 0.0	 1	    1.06399	   -6.88903	 63.0	 1	    1.06863	    0.93651;
	121	 1	 10.20	 3.10	 0.0	 0.0	 1	    1.03749	  -20.56388	 63.0	 1	    1.06349	    0.96825;
	2589	 1	 18.01	 6.80	 0.0	 0.0	 1	    1.03762	  -20.59986	 63.0	 1	    1.06349	    0.96825;
	122	 1	 142.70	 -26.60	 0.0	 0.0	 1	    1.07370	  -19.89644	 225.0	 1	    1.08889	    1.00000;
	123	 1	 38.90	 7.90	 0.0	 0.0	 1	    1.05898	  -17.38045	 63.0	 1	    1.07937	    0.92063;
	124	 2	 4.70	 -2.00	 0.0	 0.0	 1	    1.03252	   -9.50196	 63.0	 1	    1.08203	    0.92063;
	125	 1	 0.00	 0.00	 0.0	 0.0	 1	    1.04146	   -4.06535	 63.0	 1	    1.07937	    0.92063;
	126	 1	 0.00	 0.00	 0.0	 0.0	 1	    1.04940	   -8.66066	 225.0	 1	    1.08889	    1.00000;
	127	 1	 0.00	 0.00	 0.0	 0.0	 1	    1.08880	   -8.67438	 380.0	 1	    1.10526	    1.00000;
	128	 1	 31.70	 3.80	 0.0	 0.0	 1	    1.04723	  -14.86725	 63.0	 1	    1.06349	    0.93651;
	129	 2	 19.57	 7.50	 0.0	 0.0	 1	    1.04874	  -19.68085	 63.0	 1	    1.06349	    0.93651;
	130	 1	 13.09	 16.30	 0.0	 0.0	 1	    1.06520	  -14.80191	 63.0	 1	    1.07937	    0.92063;
	2955	 1	 0.00	 0.00	 0.0	 0.0	 1	    1.03698	  -17.60436	 63.0	 1	    1.07937	    0.92063;
	131	 1	 0.00	 0.00	 0.0	 0.0	 1	    1.07134	  -12.62155	 225.0	 1	    1.08889	    1.00000;
	132	 1	 167.00	 40.00	 0.0	 0.0	 1	    1.07062	  -16.88062	 225.0	 1	    1.08889	    1.00000;
	133	 2	 11.05	 3.60	 0.0	 0.0	 1	    1.06538	   -9.35755	 63.0	 1	    1.06538	    0.96825;
	134	 2	 0.00	 0.00	 0.0	 0.0	 1	    1.05402	  -12.40555	 150.0	 1	    1.08000	    0.96667;
	135	 2	 -14.90	 -4.80	 0.0	 0.0	 1	    1.01225	  -17.40615	 63.0	 1	    1.07937	    0.92063;
	136	 1	 38.06	 10.20	 0.0	 0.0	 1	    1.06091	  -21.31588	 225.0	 1	    1.08889	    0.98667;
	137	 1	 9.70	 -2.10	 0.0	 0.0	 1	    1.01429	  -13.28477	 63.0	 1	    1.06349	    0.96825;
	138	 1	 15.37	 5.80	 0.0	 0.0	 1	    1.08334	   -4.36003	 225.0	 1	    1.08444	    1.00000;
	140	 1	 0.00	 0.00	 0.0	 0.0	 1	    1.09742	  -12.45611	 380.0	 1	    1.10526	    1.00000;
	2590	 1	 0.00	 0.00	 0.0	 0.0	 1	    1.10207	  -12.58398	 380.0	 1	    1.10526	    1.00000;
	141	 1	 24.97	 1.10	 0.0	 0.0	 1	    1.07751	  -18.58685	 225.0	 1	    1.08889	    1.00000;
	142	 1	 12.37	 9.60	 0.0	 0.0	 1	    1.07261	  -23.66117	 225.0	 1	    1.08889	    1.00000;
	143	 1	 34.46	 2.30	 0.0	 0.0	 1	    1.02642	  -15.30811	 63.0	 1	    1.06349	    0.96825;
	144	 1	 99.53	 11.10	 0.0	 0.0	 1	    1.08486	  -10.29140	 150.0	 1	    1.10000	    0.90000;
	145	 1	 87.52	 0.20	 0.0	 0.0	 1	    1.08371	  -15.19658	 225.0	 1	    1.08925	    1.00000;
	146	 2	 -3.70	 -0.50	 0.0	 0.0	 1	    1.08889	  -26.80136	 225.0	 1	    1.08889	    1.00000;
	147	 1	 0.00	 0.00	 0.0	 0.0	 1	    1.06866	  -14.28340	 225.0	 1	    1.08889	    0.93333;
	148	 1	 0.00	 0.00	 0.0	 0.0	 1	    1.10033	  -13.93617	 380.0	 1	    1.10526	    1.00000;
	2591	 1	 0.00	 0.00	 0.0	 0.0	 1	    1.08812	  -13.91172	 380.0	 1	    1.10526	    1.00000;
	149	 1	 0.00	 0.00	 0.0	 0.0	 1	    1.08589	  -30.53845	 225.0	 1	    1.08889	    1.00000;
	2592	 1	 79.36	 19.50	 0.0	 0.0	 1	    1.04521	  -31.64201	 225.0	 1	    1.08889	    1.00000;
	150	 1	 0.00	 0.00	 0.0	 0.0	 1	    1.07460	  -25.87334	 225.0	 1	    1.08889	    0.98667;
	151	 1	 28.81	 9.70	 0.0	 0.0	 1	    1.08570	  -30.55392	 225.0	 1	    1.08889	    1.00000;
	153	 1	 164.60	 23.10	 0.0	 0.0	 1	    1.07199	  -17.68129	 225.0	 1	    1.08889	    0.93333;
	154	 1	 0.00	 0.00	 0.0	 0.0	 1	    1.09334	  -13.87011	 380.0	 1	    1.10526	    1.00000;
	155	 1	 66.39	 18.40	 0.0	 0.0	 1	    1.07891	  -18.07274	 225.0	 1	    1.08889	    1.00000;
	156	 1	 37.10	 4.20	 0.0	 0.0	 1	    1.03834	  -14.74468	 63.0	 1	    1.06503	    0.93651;
	157	 1	 2.88	 0.40	 0.0	 0.0	 1	    1.04509	   -7.70599	 63.0	 1	    1.06349	    0.96825;
	158	 1	 33.02	 2.20	 0.0	 0.0	 1	    1.04892	  -11.55963	 63.0	 1	    1.07937	    0.92063;
	159	 1	 29.17	 1.90	 0.0	 0.0	 1	    1.01125	  -18.48769	 63.0	 1	    1.06349	    0.96825;
	160	 1	 6.72	 3.00	 0.0	 0.0	 1	    1.02945	  -21.62631	 63.0	 1	    1.06349	    0.93651;
	161	 2	 0.00	 0.00	 0.0	 0.0	 1	    1.04432	   -8.97428	 63.0	 1	    1.15000	    0.80000;
	162	 1	 0.50	 -40.50	 0.0	 0.0	 1	    1.09053	  -25.92763	 225.0	 1	    1.09053	    1.00000;
	163	 1	 0.00	 0.00	 0.0	 0.0	 1	    1.03675	  -26.08125	 63.0	 1	    1.06349	    0.96825;
	164	 1	 109.30	 -1.70	 0.0	 0.0	 1	    1.07421	  -17.89016	 225.0	 1	    1.09791	    1.00000;
	165	 1	 224.87	 17.60	 0.0	 0.0	 1	    1.08107	  -22.54281	 225.0	 1	    1.08889	    0.98667;
	166	 1	 61.95	 6.20	 0.0	 0.0	 1	    1.03851	   -9.69556	 63.0	 1	    1.06349	    0.96825;
	167	 1	 143.23	 36.70	 0.0	 0.0	 1	    1.07306	  -29.94789	 225.0	 1	    1.09067	    1.00000;
	168	 1	 14.10	 -5.70	 0.0	 0.0	 1	    1.05412	  -15.34337	 63.0	 1	    1.06349	    0.93651;
	169	 1	 24.10	 -4.60	 0.0	 0.0	 1	    1.03272	  -12.20430	 63.0	 1	    1.06349	    0.96825;
	170	 1	 2.16	 0.30	 0.0	 0.0	 1	    1.03675	  -19.16606	 63.0	 1	    1.06822	    0.93651;
	171	 1	 217.90	 51.40	 0.0	 0.0	 1	    1.06557	  -27.12755	 225.0	 1	    1.08889	    0.92444;
	172	 2	 -0.00	 1.20	 0.0	 0.0	 1	    1.02312	   -8.20272	 63.0	 1	    1.06349	    0.96825;
	173	 1	 99.05	 15.90	 0.0	 0.0	 1	    1.09575	  -13.82110	 225.0	 1	    1.09616	    0.98667;
	174	 1	 0.00	 0.00	 0.0	 0.0	 1	    1.10510	  -14.80604	 380.0	 1	    1.10526	    1.00000;
	2998	 1	 0.00	 0.00	 0.0	 0.0	 1	    1.10350	  -14.25641	 380.0	 1	    1.10526	    1.00000;
	175	 1	 120.70	 -49.60	 0.0	 0.0	 1	    1.07553	  -36.89948	 225.0	 1	    1.08444	    1.00000;
	177	 1	 0.00	 0.00	 0.0	 0.0	 1	    1.01935	  -17.60924	 63.0	 1	    1.06349	    0.96086;
	178	 1	 0.00	 0.00	 0.0	 0.0	 1	    1.08444	  -19.74423	 225.0	 1	    1.08444	    1.00000;
	179	 1	 0.00	 0.00	 0.0	 0.0	 1	    1.07765	  -17.56353	 380.0	 1	    1.10263	    1.00000;
	180	 1	 6.00	 0.60	 0.0	 0.0	 1	    1.07196	  -17.71233	 225.0	 1	    1.08889	    0.93333;
	181	 1	 -3.00	 -14.30	 0.0	 0.0	 1	    0.97277	  -15.16949	 45.0	 1	    1.01652	    0.88889;
	182	 1	 0.00	 0.00	 0.0	 0.0	 1	    1.02287	  -14.75086	 63.0	 1	    1.06349	    0.93651;
	183	 1	 0.00	 0.00	 0.0	 0.0	 1	    1.05441	  -12.40971	 225.0	 1	    1.08889	    0.93333;
	184	 2	 0.00	 0.00	 0.0	 0.0	 1	    1.07292	   -6.58710	 225.0	 1	    1.08889	    0.97778;
	185	 1	 22.30	 -2.20	 0.0	 0.0	 1	    1.02303	   -7.98361	 63.0	 1	    1.06349	    0.93651;
	186	 1	 -2.40	 -2.20	 0.0	 0.0	 1	    1.09862	  -10.04121	 225.0	 1	    1.09862	    1.00000;
	187	 1	 0.00	 0.00	 0.0	 0.0	 1	    1.09472	  -10.01928	 380.0	 1	    1.10526	    1.00000;
	2593	 1	 0.00	 0.00	 0.0	 0.0	 1	    1.09467	  -10.02028	 380.0	 1	    1.10526	    1.00000;
	2594	 1	 0.00	 0.00	 0.0	 0.0	 1	    1.09447	  -10.00228	 380.0	 1	    1.10526	    1.00000;
	2595	 1	 0.00	 0.00	 0.0	 0.0	 1	    1.09449	  -10.01625	 380.0	 1	    1.10526	    1.00000;
	188	 1	 0.00	 0.00	 0.0	 0.0	 1	    1.09609	  -13.59452	 225.0	 1	    1.09683	    0.98667;
	2596	 1	 0.00	 0.00	 0.0	 0.0	 1	    1.09633	  -13.53881	 225.0	 1	    1.09683	    0.98667;
	189	 1	 0.00	 0.00	 0.0	 0.0	 1	    1.10526	  -14.73485	 380.0	 1	    1.10526	    1.00000;
	190	 1	 39.70	 -5.20	 0.0	 0.0	 1	    1.08889	  -22.51476	 225.0	 1	    1.08889	    0.96889;
	191	 1	 36.60	 -1.40	 0.0	 0.0	 1	    1.01982	  -26.19830	 63.0	 1	    1.06349	    0.96825;
	192	 1	 46.46	 6.80	 0.0	 0.0	 1	    1.08057	  -21.02313	 225.0	 1	    1.08444	    1.00000;
	193	 1	 62.07	 10.50	 0.0	 0.0	 1	    1.09732	  -18.92592	 380.0	 1	    1.10526	    1.00000;
	194	 1	 0.00	 0.00	 0.0	 0.0	 1	    1.04535	  -19.38359	 63.0	 1	    1.06349	    0.93651;
	2597	 1	 0.00	 0.00	 0.0	 0.0	 1	    1.04593	  -19.04622	 63.0	 1	    1.06349	    0.93651;
	195	 1	 0.00	 0.00	 0.0	 0.0	 1	    1.07250	  -14.13126	 225.0	 1	    1.08889	    0.93333;
	196	 1	 0.00	 0.00	 0.0	 0.0	 1	    1.08642	   -9.33702	 380.0	 1	    1.10526	    1.00000;
	197	 1	 7.44	 17.40	 0.0	 0.0	 1	    1.04659	   -5.71009	 63.0	 1	    1.06349	    0.96825;
	198	 1	 0.00	 0.00	 0.0	 0.0	 1	    1.08303	   -2.85166	 225.0	 1	    1.08444	    1.00000;
	199	 1	 301.10	 25.30	 0.0	 0.0	 1	    1.07197	  -20.54294	 225.0	 1	    1.08444	    1.00000;
	200	 1	 56.79	 6.40	 0.0	 0.0	 1	    1.07169	  -14.89833	 225.0	 1	    1.08889	    0.93333;
	2598	 1	 53.79	 9.40	 0.0	 0.0	 1	    1.07166	  -14.90165	 225.0	 1	    1.08889	    0.93333;
	201	 1	 61.23	 0.40	 0.0	 0.0	 1	    1.09019	  -25.92393	 225.0	 1	    1.09027	    1.00000;
	202	 1	 0.00	 0.00	 0.0	 0.0	 1	    1.07956	   -8.77431	 225.0	 1	    1.09529	    1.00000;
	2599	 1	 0.00	 0.00	 0.0	 0.0	 1	    1.07537	   -9.74047	 225.0	 1	    1.09529	    1.00000;
	203	 1	 92.20	 4.70	 0.0	 0.0	 1	    1.07059	  -19.88885	 225.0	 1	    1.08889	    1.00000;
	204	 1	 31.40	 -2.80	 0.0	 0.0	 1	    1.08269	  -20.21825	 225.0	 1	    1.08889	    1.00000;
	205	 1	 0.00	 0.00	 0.0	 0.0	 1	    1.02883	   -7.15450	 63.0	 1	    1.06349	    0.96825;
	206	 1	 0.00	 0.00	 0.0	 0.0	 1	    1.08444	   -3.83134	 225.0	 1	    1.08444	    1.00000;
	207	 1	 16.69	 5.20	 0.0	 0.0	 1	    1.02858	  -16.65045	 63.0	 1	    1.06349	    0.96825;
	208	 1	 7.56	 5.00	 0.0	 0.0	 1	    1.02760	   -5.49293	 63.0	 1	    1.07937	    0.92063;
	209	 1	 44.80	 -0.60	 0.0	 0.0	 1	    1.04226	  -16.91986	 63.0	 1	    1.06349	    0.93651;
	210	 1	 0.00	 0.00	 0.0	 0.0	 1	    1.00908	  -11.22953	 63.0	 1	    1.07937	    0.92063;
	211	 1	 40.70	 5.90	 0.0	 0.0	 1	    1.06935	  -20.53410	 225.0	 1	    1.08889	    1.00000;
	212	 1	 0.00	 0.00	 0.0	 0.0	 1	    1.08444	  -11.09031	 225.0	 1	    1.08444	    1.00000;
	213	 1	 0.00	 0.00	 0.0	 0.0	 1	    1.08435	  -11.09987	 225.0	 1	    1.08444	    1.00000;
	2600	 1	 0.00	 0.00	 0.0	 0.0	 1	    1.08406	   -5.92775	 225.0	 1	    1.08444	    1.00000;
	214	 1	 0.00	 0.00	 0.0	 0.0	 1	    1.08625	   -4.60655	 380.0	 1	    1.10263	    1.00000;
	215	 1	 -3.60	 -5.30	 0.0	 0.0	 1	    1.03234	  -18.79880	 63.0	 1	    1.06418	    0.93651;
	216	 1	 223.31	 34.80	 0.0	 0.0	 1	    1.08003	  -24.74738	 225.0	 1	    1.08889	    0.88889;
	217	 1	 0.00	 0.00	 0.0	 0.0	 1	    1.09861	  -10.04127	 225.0	 1	    1.09861	    1.00000;
	218	 1	 0.00	 0.00	 0.0	 0.0	 1	    1.09444	  -10.08944	 380.0	 1	    1.10526	    1.00000;
	219	 1	 44.54	 2.40	 0.0	 0.0	 1	    1.08193	  -23.29034	 225.0	 1	    1.08889	    0.98667;
	220	 2	 0.00	 0.00	 0.0	 0.0	 1	    1.04784	  -18.34636	 63.0	 1	    1.06349	    0.96825;
	221	 1	 27.37	 6.40	 0.0	 0.0	 1	    1.02682	  -15.38698	 63.0	 1	    1.07937	    0.92063;
	222	 1	 0.00	 0.00	 0.0	 0.0	 1	    1.06946	  -14.01177	 225.0	 1	    1.08889	    1.00000;
	223	 1	 0.00	 0.00	 0.0	 0.0	 1	    1.07578	  -42.63709	 225.0	 1	    1.08444	    1.00000;
	2601	 1	 0.00	 0.00	 0.0	 0.0	 1	    1.07577	  -42.63690	 225.0	 1	    1.08444	    1.00000;
	2602	 1	 0.00	 0.00	 0.0	 0.0	 1	    1.07577	  -42.63690	 225.0	 1	    1.08444	    1.00000;
	224	 1	 70.60	 -9.60	 0.0	 0.0	 1	    1.07577	  -42.63687	 225.0	 1	    1.08444	    1.00000;
	225	 2	 0.00	 0.00	 0.0	 0.0	 1	    1.07185	  -12.84208	 20.0	 1	    1.20000	    0.80000;
	226	 1	 0.00	 0.00	 0.0	 0.0	 1	    1.05539	  -13.18012	 225.0	 1	    1.08889	    0.93333;
	227	 1	 15.70	 -0.90	 0.0	 0.0	 1	    1.07512	  -18.01358	 225.0	 1	    1.08889	    0.98667;
	229	 1	 0.00	 0.00	 0.0	 0.0	 1	    1.07896	   -9.69885	 225.0	 1	    1.09040	    1.00000;
	230	 1	 0.00	 0.00	 0.0	 0.0	 1	    1.09955	   -9.65223	 380.0	 1	    1.10526	    1.00000;
	231	 2	 0.00	 0.00	 0.0	 0.0	 1	    1.08889	  -11.67776	 225.0	 1	    1.08889	    0.93333;
	232	 1	 16.09	 1.00	 0.0	 0.0	 1	    1.01164	  -14.31285	 63.0	 1	    1.06349	    0.96825;
	2603	 1	 8.90	 -0.30	 0.0	 0.0	 1	    1.01671	  -13.99076	 63.0	 1	    1.06349	    0.96825;
	233	 1	 0.00	 0.00	 0.0	 0.0	 1	    1.06477	  -12.88146	 150.0	 1	    1.08000	    0.96667;
	234	 1	 4.56	 0.20	 0.0	 0.0	 1	    1.08710	  -26.86452	 225.0	 1	    1.08889	    1.00000;
	2604	 1	 63.87	 27.80	 0.0	 0.0	 1	    1.08644	  -26.92959	 225.0	 1	    1.08889	    1.00000;
	235	 2	 0.00	 0.00	 0.0	 0.0	 1	    1.06071	   -3.91428	 63.0	 1	    1.06349	    0.93651;
	236	 2	 32.18	 0.80	 0.0	 0.0	 1	    1.06349	    8.46375	 63.0	 1	    1.06349	    0.96825;
	237	 1	 18.01	 0.10	 0.0	 0.0	 1	    1.03008	  -15.72222	 63.0	 1	    1.06349	    0.93651;
	238	 1	 57.75	 15.90	 0.0	 0.0	 1	    1.07802	  -24.13426	 225.0	 1	    1.08889	    0.88889;
	239	 1	 0.00	 0.00	 0.0	 0.0	 1	    1.08158	   -9.92714	 225.0	 1	    1.09190	    1.00000;
	2605	 1	 0.00	 0.00	 0.0	 0.0	 1	    1.08165	   -9.91244	 225.0	 1	    1.09190	    1.00000;
	2606	 1	 0.00	 0.00	 0.0	 0.0	 1	    1.08176	   -9.93105	 225.0	 1	    1.09190	    1.00000;
	2607	 1	 0.00	 0.00	 0.0	 0.0	 1	    1.08159	   -9.92716	 225.0	 1	    1.09190	    1.00000;
	2608	 1	 0.00	 0.00	 0.0	 0.0	 1	    1.08159	   -9.92716	 225.0	 1	    1.09190	    1.00000;
	240	 2	 0.00	 0.00	 0.0	 0.0	 1	    1.09762	   -7.96776	 380.0	 1	    1.10694	    1.00000;
	241	 1	 16.57	 6.50	 0.0	 0.0	 1	    1.04048	  -14.54778	 63.0	 1	    1.06721	    0.93651;
	242	 1	 52.47	 6.50	 0.0	 0.0	 1	    1.03740	  -13.11569	 63.0	 1	    1.06349	    0.96825;
	243	 1	 198.57	 29.40	 0.0	 0.0	 1	    1.06954	  -20.50251	 225.0	 1	    1.08889	    1.00000;
	244	 1	 47.78	 7.70	 0.0	 0.0	 1	    1.03679	  -18.68054	 63.0	 1	    1.06349	    0.96825;
	245	 1	 43.70	 15.70	 0.0	 0.0	 1	    1.08484	  -25.03260	 225.0	 1	    1.08889	    0.98667;
	246	 1	 0.00	 0.00	 0.0	 0.0	 1	    1.09439	   -7.69801	 380.0	 1	    1.10526	    1.00000;
	2609	 1	 0.00	 0.00	 0.0	 0.0	 1	    1.09889	   -8.02029	 380.0	 1	    1.10526	    1.00000;
	2610	 1	 0.00	 0.00	 0.0	 0.0	 1	    1.09441	   -7.70555	 380.0	 1	    1.10526	    1.00000;
	2611	 1	 0.00	 0.00	 0.0	 0.0	 1	    1.09825	   -7.99387	 380.0	 1	    1.10526	    1.00000;
	247	 1	 50.54	 16.70	 0.0	 0.0	 1	    1.07889	  -26.51714	 225.0	 1	    1.08889	    0.92444;
	248	 1	 29.17	 1.40	 0.0	 0.0	 1	    1.02234	  -13.02983	 63.0	 1	    1.06349	    0.93651;
	249	 1	 13.60	 -1.20	 0.0	 0.0	 1	    1.00183	  -22.33354	 63.0	 1	    1.06349	    0.93651;
	250	 1	 -2.70	 0.00	 0.0	 0.0	 1	    1.06692	  -30.80066	 225.0	 1	    1.08889	    0.98667;
	251	 1	 105.05	 47.60	 0.0	 0.0	 1	    1.05306	  -32.09157	 225.0	 1	    1.08684	    1.00000;
	252	 2	 -0.00	 0.00	 0.0	 0.0	 1	    1.00000	    0.41285	 45.0	 1	    1.00000	    0.88889;
	253	 1	 -0.90	 0.50	 0.0	 0.0	 1	    1.10263	  -10.26033	 380.0	 1	    1.10263	    1.00000;
	254	 1	 -0.40	 0.50	 0.0	 0.0	 1	    1.10263	  -10.28451	 380.0	 1	    1.10263	    1.00000;
	255	 1	 5.80	 -0.50	 0.0	 0.0	 1	    1.04545	   -8.58924	 63.0	 1	    1.06754	    0.93651;
	256	 1	 0.00	 0.00	 0.0	 0.0	 1	    1.08217	  -27.83441	 225.0	 1	    1.08889	    1.00000;
	257	 1	 0.00	 0.00	 0.0	 0.0	 1	    1.08620	   -5.06319	 225.0	 1	    1.08889	    0.97778;
	2612	 1	 0.00	 0.00	 0.0	 0.0	 1	    1.08620	   -5.06319	 225.0	 1	    1.08889	    0.97778;
	258	 1	 79.12	 4.30	 0.0	 0.0	 1	    1.08316	  -23.51630	 225.0	 1	    1.08889	    0.96889;
	259	 2	 0.00	 0.00	 0.0	 0.0	 1	    1.08967	   -4.15212	 20.0	 1	    1.20000	    0.80000;
	2613	 2	 0.00	 0.00	 0.0	 0.0	 1	    1.08856	   -4.35768	 20.0	 1	    1.20000	    0.80000;
	2614	 2	 0.00	 0.00	 0.0	 0.0	 1	    1.08856	   -4.35769	 20.0	 1	    1.20000	    0.80000;
	260	 1	 0.00	 0.00	 0.0	 0.0	 1	    1.08680	   -4.43139	 225.0	 1	    1.08889	    0.93333;
	2615	 1	 0.00	 0.00	 0.0	 0.0	 1	    1.08586	   -4.63771	 225.0	 1	    1.08889	    0.93333;
	261	 1	 111.41	 34.40	 0.0	 0.0	 1	    1.05432	  -31.18316	 225.0	 1	    1.08489	    1.00000;
	262	 2	 11.77	 1.50	 0.0	 0.0	 1	    0.98723	   -2.06619	 45.0	 1	    1.00000	    0.88889;
	263	 1	 37.10	 1.40	 0.0	 0.0	 1	    1.06794	  -27.74721	 20.0	 1	    1.20000	    0.80000;
	2616	 1	 28.69	 3.20	 0.0	 0.0	 1	    1.06793	  -27.74361	 20.0	 1	    1.20000	    0.80000;
	2617	 1	 27.61	 0.50	 0.0	 0.0	 1	    1.06795	  -27.74326	 20.0	 1	    1.20000	    0.80000;
	264	 1	 195.00	 -58.40	 0.0	 0.0	 1	    1.06798	  -27.73168	 225.0	 1	    1.08444	    1.00000;
	265	 1	 14.60	 -4.00	 0.0	 0.0	 1	    1.04310	   -8.44548	 63.0	 1	    1.06349	    0.96825;
	266	 1	 0.00	 0.00	 0.0	 0.0	 1	    1.08143	   -5.43423	 225.0	 1	    1.08889	    0.97778;
	267	 1	 0.00	 0.00	 0.0	 0.0	 1	    1.07975	  -18.16823	 225.0	 1	    1.08444	    1.00000;
	268	 1	 21.60	 -4.60	 0.0	 0.0	 1	    1.04160	  -15.60920	 63.0	 1	    1.06349	    0.93651;
	269	 1	 41.42	 5.60	 0.0	 0.0	 1	    1.00913	  -25.52286	 63.0	 1	    1.06349	    0.96825;
	270	 1	 186.81	 18.60	 0.0	 0.0	 1	    1.07737	  -26.85802	 225.0	 1	    1.08889	    0.95111;
	271	 2	 0.00	 0.00	 0.0	 0.0	 1	    1.05156	   -3.72697	 63.0	 1	    1.06349	    0.93651;
	272	 1	 91.96	 12.40	 0.0	 0.0	 1	    1.08406	  -30.14558	 225.0	 1	    1.08889	    1.00000;
	273	 1	 106.97	 13.20	 0.0	 0.0	 1	    1.06634	  -30.68989	 225.0	 1	    1.08889	    0.98667;
	274	 2	 0.00	 0.00	 0.0	 0.0	 1	    1.06349	    0.96278	 63.0	 1	    1.06349	    0.93651;