%%%%%%%%%%%%%%%%%%%%%%%%%%%%%%%%%%%%%%%%%%%%%%%%%%%%%%%%%%%%%%%%%%%%%%%%%%%
%%%%                                                                  %%%%%
%%%%    IEEE PES Power Grid Library - Optimal Power Flow - v23.07     %%%%%
%%%%          (https://github.com/power-grid-lib/pglib-opf)           %%%%%
%%%%             Benchmark Group - Active Power Increase              %%%%%
%%%%                         23 - July - 2023                         %%%%%
%%%%                                                                  %%%%%
%%%%%%%%%%%%%%%%%%%%%%%%%%%%%%%%%%%%%%%%%%%%%%%%%%%%%%%%%%%%%%%%%%%%%%%%%%%
function mpc = pglib_opf_case3022_goc__api
mpc.version = '2';
mpc.baseMVA = 100.0;

%% bus data
%	bus_i	type	Pd	Qd	Gs	Bs	area	Vm	Va	baseKV	zone	Vmax	Vmin
mpc.bus = [
	1	 1	 0.0	 0.0	 0.0	 10.7088450599	 1	    1.00000	    0.00000	 230.0	 1	    1.05000	    0.95000;
	2	 1	 0.0	 0.0	 0.0	 0.0	 1	    1.00772	    0.00000	 1.0	 1	    1.06544	    0.95000;
	3	 1	 0.0	 0.0	 0.0	 -18.6298909061	 1	    1.00000	    0.00000	 115.0	 1	    1.05000	    0.95000;
	4	 1	 -87.67	 20.93	 0.0	 8.95926743971	 1	    1.00000	    0.00000	 115.0	 1	    1.05000	    0.95000;
	5	 1	 112.96	 -26.82	 0.0	 10.4858880796	 1	    1.00000	    0.00000	 115.0	 1	    1.05000	    0.95000;
	6	 1	 0.0	 0.0	 0.0	 0.0	 1	    1.00000	    0.00000	 230.0	 1	    1.05000	    0.95000;
	7	 1	 -146.87	 -0.76	 0.0	 -15.929963951	 1	    1.00000	    0.00000	 115.0	 1	    1.05000	    0.95000;
	8	 1	 0.0	 0.0	 0.0	 27.5488096085	 1	    1.00000	    0.00000	 115.0	 1	    1.05000	    0.95000;
	9	 2	 100.77	 -42.51	 0.0	 0.0	 1	    1.00000	    0.00000	 115.0	 1	    1.05000	    0.95000;
	10	 1	 0.0	 0.0	 0.0	 -0.00247428697143	 1	    1.00000	    0.00000	 115.0	 1	    1.05000	    0.95000;
	11	 1	 53.15	 5.53	 0.0	 0.0	 1	    1.00000	    0.00000	 115.0	 1	    1.05000	    0.95000;
	12	 1	 28.78	 2.79	 0.0	 2.65714737811	 1	    1.00000	    0.00000	 230.0	 1	    1.05000	    0.95000;
	13	 1	 0.0	 0.0	 0.0	 -27.9687572032	 1	    1.00000	    0.00000	 230.0	 1	    1.05000	    0.95000;
	14	 1	 259.48	 -10.86	 0.0	 2.47605317836e-05	 1	    1.00772	    0.00000	 345.0	 1	    1.06544	    0.95000;
	15	 1	 -87.69	 20.93	 0.0	 8.99926608727	 1	    1.00000	    0.00000	 115.0	 1	    1.05000	    0.95000;
	16	 1	 123.77	 -1.15	 0.0	 -17.445	 1	    1.00000	    0.00000	 230.0	 1	    1.05000	    0.95000;
	17	 1	 33.53	 7.24	 0.0	 1.56971077193	 1	    1.00000	    0.00000	 230.0	 1	    1.05000	    0.95000;
	18	 1	 47.87	 2.86	 0.0	 21.1150845864	 1	    1.00000	    0.00000	 230.0	 1	    1.05000	    0.95000;
	19	 1	 0.0	 0.0	 0.0	 0.0	 1	    1.01429	    0.00000	 500.0	 1	    1.07859	    0.95000;
	20	 1	 0.0	 0.0	 0.0	 0.0	 1	    1.00772	    0.00000	 1.0	 1	    1.06544	    0.95000;
	21	 1	 -88.38	 27.37	 0.0	 0.0	 1	    1.00000	    0.00000	 22.8	 1	    1.05000	    0.95000;
	22	 1	 0.0	 0.0	 0.0	 47.4985061457	 1	    1.00000	    0.00000	 230.0	 1	    1.05000	    0.95000;
	23	 2	 0.0	 0.0	 0.0	 10.787	 1	    1.00000	    0.00000	 345.0	 1	    1.05000	    0.95000;
	24	 1	 0.0	 0.0	 0.0	 -9.73913034417	 1	    1.00000	    0.00000	 138.0	 1	    1.05000	    0.95000;
	25	 2	 -99.44	 21.92	 0.0	 0.0	 1	    1.00000	    0.00000	 21.0	 1	    1.05000	    0.95000;
	26	 1	 100.53	 -20.51	 0.0	 -1.07635204534	 1	    1.00000	    0.00000	 230.0	 1	    1.05000	    0.95000;
	27	 2	 139.94	 -38.64	 0.0	 0.0	 1	    1.00000	    0.00000	 115.0	 1	    1.05000	    0.95000;
	28	 1	 -200.47	 -6.63	 0.0	 -14.7599583523	 1	    1.00826	    0.00000	 115.0	 1	    1.06652	    0.95000;
	29	 1	 0.0	 0.0	 0.0	 3.32755327965	 1	    1.00000	    0.00000	 115.0	 1	    1.05000	    0.95000;
	30	 1	 102.31	 24.64	 0.0	 44.5470035005	 1	    1.00000	    0.00000	 161.0	 1	    1.05000	    0.95000;
	31	 1	 0.0	 0.0	 0.0	 36.8036356464	 1	    1.00000	    0.00000	 230.0	 1	    1.05000	    0.95000;
	32	 1	 82.40	 -19.26	 0.0	 -0.895305326082	 1	    1.00000	    0.00000	 161.0	 1	    1.05000	    0.95000;
	33	 1	 -45.45	 26.26	 0.0	 6.056789459e-05	 1	    1.00000	    0.00000	 115.0	 1	    1.05000	    0.95000;
	34	 1	 121.83	 77.40	 0.0	 118.618169754	 1	    1.00000	    0.00000	 115.0	 1	    1.05000	    0.95000;
	35	 1	 35.88	 5.11	 0.0	 0.0	 1	    1.00000	    0.00000	 230.0	 1	    1.05000	    0.95000;
	36	 1	 0.0	 0.0	 0.0	 -0.349609780844	 1	    1.00000	    0.00000	 138.0	 1	    1.05000	    0.95000;
	37	 1	 0.0	 0.0	 0.0	 -2.33996268212	 1	    1.00000	    0.00000	 230.0	 1	    1.05000	    0.95000;
	38	 1	 0.0	 0.0	 0.0	 -9.08994151997	 1	    1.00000	    0.00000	 230.0	 1	    1.05000	    0.95000;
	39	 1	 0.0	 0.0	 0.0	 4.25160694973e-05	 1	    1.00972	    0.00000	 230.0	 1	    1.06945	    0.95000;
	40	 1	 0.0	 0.0	 0.0	 0.0	 1	    1.00000	    0.00000	 230.0	 1	    1.05000	    0.95000;
	41	 1	 0.0	 0.0	 0.0	 -5.94944609868	 1	    1.00000	    0.00000	 161.0	 1	    1.05000	    0.95000;
	42	 2	 42.44	 5.62	 0.0	 0.0	 1	    1.00000	    0.00000	 230.0	 1	    1.05000	    0.95000;
	43	 1	 0.0	 0.0	 0.0	 -37.4103850833	 1	    1.00000	    0.00000	 230.0	 1	    1.05000	    0.95000;
	44	 1	 -146.86	 -1.28	 0.0	 -16.4699639484	 1	    1.00000	    0.00000	 115.0	 1	    1.05000	    0.95000;
	45	 1	 0.0	 0.0	 0.0	 0.975274527807	 1	    1.00000	    0.00000	 230.0	 1	    1.05000	    0.95000;
	46	 2	 0.0	 0.0	 0.0	 0.0	 1	    1.00000	    0.00000	 1.0	 1	    1.05000	    0.95000;
	47	 1	 141.54	 -33.31	 0.0	 1.52802945537	 1	    1.00000	    0.00000	 115.0	 1	    1.05000	    0.95000;
	48	 1	 0.0	 0.0	 0.0	 10.2595185715	 1	    1.00000	    0.00000	 230.0	 1	    1.05000	    0.95000;
	49	 1	 39.22	 3.94	 0.0	 0.00109973857814	 1	    1.00000	    0.00000	 115.0	 1	    1.05000	    0.95000;
	50	 1	 22.20	 -5.04	 0.0	 29.0439740368	 1	    1.00000	    0.00000	 230.0	 1	    1.05000	    0.95000;
	51	 2	 0.0	 0.0	 0.0	 0.0	 1	    1.00000	    0.00000	 1.0	 1	    1.05000	    0.95000;
	52	 1	 27.12	 2.53	 0.0	 1.14866320306	 1	    1.00000	    0.00000	 230.0	 1	    1.05000	    0.95000;
	53	 1	 0.0	 0.0	 0.0	 -172.229974873	 1	    1.00772	    0.00000	 500.0	 1	    1.06544	    0.95000;
	54	 1	 238.90	 11.92	 0.0	 0.0	 1	    1.00000	    0.00000	 230.0	 1	    1.05000	    0.95000;
	55	 1	 0.0	 0.0	 0.0	 0.0	 1	    1.00000	    0.00000	 25.0	 2	    1.05000	    0.95000;
	56	 1	 0.0	 0.0	 0.0	 0.0	 1	    1.00000	    0.00000	 115.0	 2	    1.05000	    0.95000;
	57	 1	 0.0	 0.0	 0.0	 0.0	 1	    1.00000	    0.00000	 12.0	 2	    1.05000	    0.95000;
	58	 1	 0.0	 0.0	 0.0	 0.0	 1	    1.00000	    0.00000	 115.0	 2	    1.05000	    0.95000;
	59	 1	 10.55	 -8.99	 0.0	 -6.70459040187	 1	    1.00000	    0.00000	 115.0	 2	    1.05000	    0.95000;
	60	 2	 0.0	 0.0	 0.0	 0.0	 1	    1.00000	    0.00000	 25.0	 2	    1.05000	    0.95000;
	61	 1	 -0.48	 0.55	 0.0	 0.0	 1	    1.00000	    0.00000	 22.0	 2	    1.05000	    0.95000;
	62	 1	 0.0	 0.0	 0.0	 0.0	 1	    1.00000	    0.00000	 115.0	 2	    1.05000	    0.95000;
	63	 1	 9.40	 -0.52	 0.0	 0.0	 1	    1.00000	    0.00000	 115.0	 2	    1.05000	    0.95000;
	64	 1	 0.0	 0.0	 0.0	 0.0	 1	    1.00000	    0.00000	 115.0	 2	    1.05000	    0.95000;
	65	 1	 0.0	 0.0	 0.0	 0.0	 1	    1.00000	    0.00000	 25.0	 2	    1.05000	    0.95000;
	66	 1	 3.76	 -5.85	 0.0	 -15.861	 1	    1.00000	    0.00000	 115.0	 2	    1.05000	    0.95000;
	67	 1	 0.0	 0.0	 0.0	 0.0	 1	    1.00000	    0.00000	 115.0	 2	    1.05000	    0.95000;
	68	 1	 0.0	 0.0	 0.0	 0.0	 1	    1.00000	    0.00000	 12.0	 2	    1.05000	    0.95000;
	69	 1	 0.0	 0.0	 0.0	 0.0	 1	    1.00000	    0.00000	 115.0	 2	    1.05000	    0.95000;
	70	 2	 0.0	 0.0	 0.0	 0.0	 1	    1.00000	    0.00000	 34.5	 2	    1.05000	    0.95000;
	71	 1	 0.0	 0.0	 0.0	 0.0	 1	    1.00000	    0.00000	 1.0	 3	    1.05000	    0.95000;
	72	 1	 0.0	 0.0	 0.0	 0.0	 1	    1.00000	    0.00000	 345.0	 3	    1.05000	    0.95000;
	73	 2	 0.0	 0.0	 0.0	 0.0	 1	    1.00000	    0.00000	 765.0	 3	    1.05000	    0.95000;
	74	 1	 82.47	 30.01	 0.0	 17.9999729176	 1	    1.00000	    0.00000	 138.0	 3	    1.05000	    0.95000;
	75	 3	 27.51	 -14.28	 0.0	 0.0	 1	    1.00000	    0.00000	 345.0	 3	    1.05000	    0.95000;
	76	 1	 0.0	 0.0	 0.0	 0.0	 1	    1.00000	    0.00000	 345.0	 3	    1.05000	    0.95000;
	77	 1	 6.34	 1.40	 0.0	 0.000101257434274	 1	    1.00000	    0.00000	 138.0	 3	    1.05000	    0.95000;
	78	 2	 10.36	 -0.60	 0.0	 0.0	 1	    1.00000	    0.00000	 138.0	 3	    1.05000	    0.95000;
	79	 1	 51.89	 -1.37	 0.0	 0.0	 1	    1.00000	    0.00000	 138.0	 3	    1.05000	    0.95000;
	80	 1	 0.0	 0.0	 0.0	 0.0	 1	    1.00000	    0.00000	 18.0	 3	    1.05000	    0.95000;
	81	 1	 24.87	 4.46	 0.0	 0.0	 1	    1.00000	    0.00000	 138.0	 3	    1.05000	    0.95000;
	82	 1	 0.0	 0.0	 0.0	 0.0	 1	    1.00000	    0.00000	 13.8	 3	    1.05000	    0.95000;
	83	 1	 -6.02	 6.03	 0.0	 0.0	 1	    1.00000	    0.00000	 345.0	 3	    1.05000	    0.95000;
	84	 1	 0.0	 0.0	 0.0	 0.0	 1	    1.00000	    0.00000	 345.0	 3	    1.05000	    0.95000;
	85	 1	 34.72	 2.50	 0.0	 0.0	 1	    1.00000	    0.00000	 138.0	 3	    1.05000	    0.95000;
	86	 1	 54.97	 5.27	 0.0	 0.0	 1	    1.00000	    0.00000	 138.0	 3	    1.05000	    0.95000;
	87	 1	 553.26	 7.09	 0.0	 0.0	 1	    1.00000	    0.00000	 345.0	 3	    1.05000	    0.95000;
	88	 1	 61.71	 12.78	 0.0	 0.0	 1	    1.00000	    0.00000	 345.0	 3	    1.05000	    0.95000;
	89	 1	 220.71	 2.03	 0.0	 0.0	 1	    1.00000	    0.00000	 345.0	 3	    1.05000	    0.95000;
	90	 1	 40.37	 8.84	 0.0	 0.0	 1	    1.00000	    0.00000	 138.0	 3	    1.05000	    0.95000;
	91	 1	 11.72	 2.22	 0.0	 0.0	 1	    1.00000	    0.00000	 138.0	 3	    1.05000	    0.95000;
	92	 1	 36.22	 -4.38	 0.0	 17.9999163045	 1	    1.00000	    0.00000	 138.0	 3	    1.05000	    0.95000;
	93	 1	 126.72	 -21.51	 0.0	 0.0	 1	    1.00000	    0.00000	 345.0	 3	    1.05000	    0.95000;
	94	 1	 23.98	 3.87	 0.0	 6.72995032906	 1	    1.00000	    0.00000	 138.0	 3	    1.05000	    0.95000;
	95	 1	 0.0	 0.0	 0.0	 0.0	 1	    1.00000	    0.00000	 345.0	 3	    1.05000	    0.95000;
	96	 2	 18.75	 3.16	 0.0	 0.0	 1	    1.00000	    0.00000	 138.0	 3	    1.05000	    0.95000;
	97	 1	 141.87	 -28.76	 0.0	 0.0	 1	    1.00000	    0.00000	 138.0	 3	    1.05000	    0.95000;
	98	 1	 32.69	 9.64	 0.0	 0.0	 1	    1.00000	    0.00000	 138.0	 3	    1.05000	    0.95000;
	99	 1	 55.24	 9.98	 0.0	 17.0424703175	 1	    1.00000	    0.00000	 138.0	 3	    1.05000	    0.95000;
	100	 1	 0.0	 0.0	 0.0	 0.0	 1	    1.00000	    0.00000	 1.0	 3	    1.05000	    0.95000;
	101	 1	 0.0	 0.0	 0.0	 0.0	 1	    1.00000	    0.00000	 345.0	 3	    1.05000	    0.95000;
	102	 1	 0.0	 0.0	 0.0	 0.0	 1	    1.00000	    0.00000	 138.0	 3	    1.05000	    0.95000;
	103	 1	 29.29	 -24.57	 0.0	 0.0	 1	    1.00000	    0.00000	 138.0	 3	    1.05000	    0.95000;
	104	 1	 0.0	 0.0	 0.0	 0.0	 1	    1.00000	    0.00000	 345.0	 3	    1.05000	    0.95000;
	105	 1	 0.0	 0.0	 0.0	 0.0	 1	    1.00000	    0.00000	 345.0	 3	    1.05000	    0.95000;
	106	 1	 0.0	 0.0	 0.0	 0.0	 1	    1.00000	    0.00000	 13.8	 3	    1.05000	    0.95000;
	107	 1	 5.25	 2.23	 0.0	 2.99974245453	 1	    1.00000	    0.00000	 138.0	 3	    1.05000	    0.95000;
	108	 1	 0.0	 0.0	 0.0	 0.0	 1	    1.00000	    0.00000	 345.0	 3	    1.05000	    0.95000;
	109	 1	 81.73	 -8.48	 0.0	 0.0	 1	    1.00000	    0.00000	 345.0	 3	    1.05000	    0.95000;
	110	 1	 0.0	 0.0	 0.0	 7.77591109521	 1	    1.00000	    0.00000	 138.0	 3	    1.05000	    0.95000;
	111	 1	 0.0	 0.0	 0.0	 0.0	 1	    1.00000	    0.00000	 138.0	 3	    1.05000	    0.95000;
	112	 2	 27.34	 27.68	 0.0	 0.0	 1	    1.00000	    0.00000	 138.0	 3	    1.05000	    0.95000;
	113	 1	 631.41	 -96.17	 0.0	 0.0	 1	    1.00000	    0.00000	 345.0	 3	    1.05000	    0.95000;
	114	 1	 70.60	 -16.95	 0.0	 -17.2793617853	 1	    1.00000	    0.00000	 138.0	 3	    1.05000	    0.95000;
	115	 1	 38.10	 13.08	 0.0	 0.0	 1	    1.00000	    0.00000	 138.0	 3	    1.05000	    0.95000;
	116	 2	 33.54	 1.48	 0.0	 51.25	 1	    1.00000	    0.00000	 138.0	 3	    1.05000	    0.95000;
	117	 1	 14.52	 -3.00	 0.0	 0.0	 1	    1.00000	    0.00000	 13.8	 3	    1.05000	    0.95000;
	118	 1	 0.0	 0.0	 0.0	 0.0	 1	    1.00000	    0.00000	 345.0	 3	    1.05000	    0.95000;
	119	 1	 -1.59	 5.73	 0.0	 0.0	 1	    1.00000	    0.00000	 24.0	 3	    1.05000	    0.95000;
	120	 1	 0.0	 0.0	 0.0	 0.0	 1	    1.00000	    0.00000	 138.0	 3	    1.05000	    0.95000;
	121	 1	 0.0	 0.0	 0.0	 0.0	 1	    1.00000	    0.00000	 345.0	 3	    1.05000	    0.95000;
	122	 1	 2.79	 -9.49	 0.0	 8.54916974918e-05	 1	    1.00000	    0.00000	 138.0	 3	    1.05000	    0.95000;
	123	 1	 41.56	 1.72	 0.0	 0.0	 1	    1.00000	    0.00000	 138.0	 3	    1.05000	    0.95000;
	124	 1	 0.0	 0.0	 0.0	 0.0	 1	    1.00000	    0.00000	 138.0	 3	    1.05000	    0.95000;
	125	 1	 0.0	 0.0	 0.0	 0.0	 1	    1.00000	    0.00000	 18.0	 3	    1.05000	    0.95000;
	126	 1	 0.0	 0.0	 0.0	 0.0	 1	    1.00000	    0.00000	 18.0	 3	    1.05000	    0.95000;
	127	 1	 0.0	 0.0	 0.0	 0.0	 1	    1.00000	    0.00000	 345.0	 3	    1.05000	    0.95000;
	128	 1	 39.71	 9.02	 0.0	 0.0	 1	    1.00000	    0.00000	 138.0	 3	    1.05000	    0.95000;
	129	 2	 -1.60	 5.61	 0.0	 0.0	 1	    1.00000	    0.00000	 24.0	 3	    1.05000	    0.95000;
	130	 1	 -42.96	 4.38	 0.0	 0.0	 1	    1.00000	    0.00000	 138.0	 3	    1.05000	    0.95000;
	131	 1	 4.52	 1.11	 0.0	 -5.34587821331	 1	    1.00000	    0.00000	 138.0	 3	    1.05000	    0.95000;
	132	 1	 142.39	 14.48	 0.0	 0.0	 1	    1.00000	    0.00000	 138.0	 3	    1.05000	    0.95000;
	133	 1	 51.80	 17.21	 0.0	 6.68996138034	 1	    1.00000	    0.00000	 138.0	 3	    1.05000	    0.95000;
	134	 1	 27.34	 12.96	 0.0	 7.69978252224	 1	    1.00000	    0.00000	 138.0	 3	    1.05000	    0.95000;
	135	 1	 0.0	 0.0	 0.0	 0.0	 1	    1.00000	    0.00000	 345.0	 3	    1.05000	    0.95000;
	136	 1	 2.89	 -10.71	 0.0	 -6.75633000352	 1	    1.00000	    0.00000	 138.0	 3	    1.05000	    0.95000;
	137	 1	 0.0	 0.0	 0.0	 0.0	 1	    1.00000	    0.00000	 345.0	 3	    1.05000	    0.95000;
	138	 1	 36.61	 3.39	 0.0	 0.0	 1	    1.00000	    0.00000	 138.0	 3	    1.05000	    0.95000;
	139	 1	 -4.69	 0.11	 0.0	 6.74995867	 1	    1.00000	    0.00000	 138.0	 3	    1.05000	    0.95000;
	140	 1	 14.53	 -3.00	 0.0	 0.0	 1	    1.00000	    0.00000	 13.8	 3	    1.05000	    0.95000;
	141	 2	 0.0	 0.0	 0.0	 0.0	 1	    1.00000	    0.00000	 345.0	 3	    1.05000	    0.95000;
	142	 1	 0.0	 0.0	 0.0	 -249.996582478	 1	    1.00000	    0.00000	 345.0	 3	    1.05000	    0.95000;
	143	 1	 0.0	 0.0	 0.0	 0.0	 1	    1.00000	    0.00000	 345.0	 3	    1.05000	    0.95000;
	144	 1	 14.66	 0.73	 0.0	 2.33991149862	 1	    1.00000	    0.00000	 138.0	 3	    1.05000	    0.95000;
	145	 1	 40.63	 9.69	 0.0	 0.0	 1	    1.00000	    0.00000	 138.0	 3	    1.05000	    0.95000;
	146	 1	 6.96	 9.32	 0.0	 0.0	 1	    1.00000	    0.00000	 138.0	 3	    1.05000	    0.95000;
	147	 2	 21.44	 3.97	 0.0	 0.0	 1	    1.00000	    0.00000	 138.0	 3	    1.05000	    0.95000;
	148	 1	 35.23	 14.16	 0.0	 0.0	 1	    1.00000	    0.00000	 138.0	 3	    1.05000	    0.95000;
	149	 1	 44.23	 19.42	 0.0	 13.5364791991	 1	    1.00000	    0.00000	 138.0	 3	    1.05000	    0.95000;
	150	 1	 1.21	 2.93	 0.0	 0.0	 1	    1.00000	    0.00000	 138.0	 3	    1.05000	    0.95000;
	151	 1	 0.0	 0.0	 0.0	 0.0	 1	    1.00000	    0.00000	 230.0	 4	    1.05000	    0.95000;
	152	 2	 0.0	 0.0	 0.0	 0.0	 1	    1.00000	    0.00000	 25.0	 4	    1.05000	    0.95000;
	153	 1	 35.57	 4.94	 0.0	 0.0	 1	    1.00000	    0.00000	 115.0	 4	    1.05000	    0.95000;
	154	 2	 36.03	 -0.71	 0.0	 0.0	 1	    1.00000	    0.00000	 46.0	 4	    1.05000	    0.95000;
	155	 1	 0.0	 0.0	 0.0	 0.0	 1	    1.00000	    0.00000	 115.0	 4	    1.05000	    0.95000;
	156	 1	 11.31	 1.30	 0.0	 0.0	 1	    1.00000	    0.00000	 115.0	 4	    1.05000	    0.95000;
	157	 1	 0.0	 0.0	 0.0	 0.0	 1	    1.00000	    0.00000	 46.0	 4	    1.05000	    0.95000;
	158	 1	 0.0	 0.0	 0.0	 0.0	 1	    1.00000	    0.00000	 115.0	 4	    1.05000	    0.95000;
	159	 1	 8.94	 1.60	 0.0	 0.0	 1	    1.00000	    0.00000	 46.0	 4	    1.05000	    0.95000;
	160	 1	 131.27	 -62.29	 0.0	 -59.884	 1	    1.00000	    0.00000	 230.0	 4	    1.05000	    0.95000;
	161	 1	 20.76	 6.06	 0.0	 0.0	 1	    1.00000	    0.00000	 46.0	 4	    1.05000	    0.95000;
	162	 1	 25.99	 4.76	 0.0	 0.0	 1	    1.00000	    0.00000	 115.0	 4	    1.05000	    0.95000;
	163	 1	 7.40	 1.06	 0.0	 0.0	 1	    1.00000	    0.00000	 13.8	 4	    1.05000	    0.95000;
	164	 1	 7.90	 -1.19	 0.0	 0.0	 1	    1.00000	    0.00000	 115.0	 4	    1.05000	    0.95000;
	165	 1	 39.03	 2.54	 0.0	 0.0	 1	    1.00000	    0.00000	 115.0	 4	    1.05000	    0.95000;
	166	 1	 16.78	 0.18	 0.0	 0.0	 1	    1.00000	    0.00000	 115.0	 4	    1.05000	    0.95000;
	167	 1	 0.0	 0.0	 0.0	 0.0	 1	    1.00000	    0.00000	 230.0	 4	    1.05000	    0.95000;
	168	 1	 6.54	 -1.55	 0.0	 0.0	 1	    1.00000	    0.00000	 115.0	 4	    1.05000	    0.95000;
	169	 1	 0.0	 0.0	 0.0	 0.0	 1	    1.00000	    0.00000	 115.0	 4	    1.05000	    0.95000;
	170	 1	 11.20	 0.88	 0.0	 0.0	 1	    1.00000	    0.00000	 115.0	 4	    1.05000	    0.95000;
	171	 1	 0.0	 0.0	 0.0	 0.0	 1	    1.00000	    0.00000	 230.0	 4	    1.05000	    0.95000;
	172	 1	 0.0	 0.0	 0.0	 0.0	 1	    1.00000	    0.00000	 115.0	 4	    1.05000	    0.95000;
	173	 1	 27.22	 0.75	 0.0	 0.0	 1	    1.00000	    0.00000	 46.0	 4	    1.05000	    0.95000;
	174	 1	 -0.38	 -1.28	 0.0	 0.0	 1	    1.00000	    0.00000	 115.0	 4	    1.05000	    0.95000;
	175	 1	 0.0	 0.0	 0.0	 0.0	 1	    1.00000	    0.00000	 115.0	 4	    1.05000	    0.95000;
	176	 1	 23.48	 -5.29	 0.0	 0.0	 1	    1.00000	    0.00000	 115.0	 4	    1.05000	    0.95000;
	177	 1	 143.39	 -29.95	 0.0	 0.0	 1	    1.00000	    0.00000	 230.0	 4	    1.05000	    0.95000;
	178	 1	 0.0	 0.0	 0.0	 0.0	 1	    1.00000	    0.00000	 34.5	 4	    1.05000	    0.95000;
	179	 1	 0.0	 0.0	 0.0	 0.0	 1	    1.00000	    0.00000	 13.8	 4	    1.05000	    0.95000;
	180	 1	 48.00	 -21.65	 0.0	 0.0	 1	    1.00000	    0.00000	 115.0	 4	    1.05000	    0.95000;
	181	 1	 8.07	 -0.65	 0.0	 0.0	 1	    1.00000	    0.00000	 46.0	 4	    1.05000	    0.95000;
	182	 1	 0.0	 0.0	 0.0	 0.0	 1	    1.00000	    0.00000	 34.5	 4	    1.05000	    0.95000;
	183	 1	 5.61	 -1.43	 0.0	 0.0	 1	    1.00000	    0.00000	 115.0	 4	    1.05000	    0.95000;
	184	 1	 13.71	 2.16	 0.0	 0.0	 1	    1.00000	    0.00000	 46.0	 4	    1.05000	    0.95000;
	185	 1	 0.0	 0.0	 0.0	 0.0	 1	    1.00000	    0.00000	 115.0	 4	    1.05000	    0.95000;
	186	 1	 0.0	 0.0	 0.0	 0.0	 1	    1.00000	    0.00000	 230.0	 4	    1.05000	    0.95000;
	187	 1	 6.00	 -1.43	 0.0	 0.0	 1	    1.00000	    0.00000	 115.0	 4	    1.05000	    0.95000;
	188	 1	 5.27	 -4.15	 0.0	 0.0	 1	    1.00000	    0.00000	 115.0	 4	    1.05000	    0.95000;
	189	 1	 0.0	 0.0	 0.0	 0.0	 1	    1.00000	    0.00000	 230.0	 4	    1.05000	    0.95000;
	190	 1	 9.71	 0.43	 0.0	 0.0	 1	    1.00000	    0.00000	 46.0	 4	    1.05000	    0.95000;
	191	 1	 -0.48	 0.55	 0.0	 0.0	 1	    1.00000	    0.00000	 22.0	 4	    1.05000	    0.95000;
	192	 1	 0.0	 0.0	 0.0	 9.19999579897	 1	    1.00000	    0.00000	 34.5	 4	    1.05000	    0.95000;
	193	 1	 87.81	 -13.62	 0.0	 0.0	 1	    1.00000	    0.00000	 115.0	 4	    1.05000	    0.95000;
	194	 1	 0.0	 0.0	 0.0	 0.0	 1	    1.00000	    0.00000	 46.0	 4	    1.05000	    0.95000;
	195	 1	 7.98	 -2.34	 0.0	 0.0	 1	    1.00000	    0.00000	 46.0	 4	    1.05000	    0.95000;
	196	 1	 0.0	 0.0	 0.0	 0.0	 1	    1.00000	    0.00000	 34.5	 4	    1.05000	    0.95000;
	197	 1	 0.0	 0.0	 0.0	 0.0	 1	    1.00000	    0.00000	 46.0	 4	    1.05000	    0.95000;
	198	 1	 0.0	 0.0	 0.0	 0.0	 1	    1.00000	    0.00000	 115.0	 4	    1.05000	    0.95000;
	199	 1	 0.0	 0.0	 0.0	 0.0	 1	    1.00000	    0.00000	 34.5	 4	    1.05000	    0.95000;
	200	 1	 10.94	 -0.58	 0.0	 0.0	 1	    1.00000	    0.00000	 46.0	 4	    1.05000	    0.95000;
	201	 1	 8.37	 2.29	 0.0	 0.0	 1	    1.00000	    0.00000	 46.0	 4	    1.05000	    0.95000;
	202	 1	 0.0	 0.0	 0.0	 0.0	 1	    1.00000	    0.00000	 115.0	 4	    1.05000	    0.95000;
	203	 1	 2.74	 -24.81	 0.0	 0.0	 1	    1.00000	    0.00000	 230.0	 4	    1.05000	    0.95000;
	204	 1	 67.77	 -34.50	 0.0	 -32.353	 1	    1.00000	    0.00000	 1.0	 4	    1.05000	    0.95000;
	205	 1	 0.0	 0.0	 0.0	 0.0	 1	    1.00000	    0.00000	 46.0	 4	    1.05000	    0.95000;
	206	 1	 -1.69	 -0.38	 0.0	 0.0	 1	    1.00000	    0.00000	 34.5	 4	    1.05000	    0.95000;
	207	 1	 -0.30	 4.53	 0.0	 0.0	 1	    1.00000	    0.00000	 46.0	 4	    1.05000	    0.95000;
	208	 1	 17.09	 0.07	 0.0	 0.0	 1	    1.00000	    0.00000	 115.0	 4	    1.05000	    0.95000;
	209	 1	 0.0	 0.0	 0.0	 0.0	 1	    1.00000	    0.00000	 230.0	 4	    1.05000	    0.95000;
	210	 1	 0.0	 0.0	 0.0	 0.0	 1	    1.00000	    0.00000	 46.0	 4	    1.05000	    0.95000;
	211	 2	 0.0	 0.0	 0.0	 0.0	 1	    1.00000	    0.00000	 34.5	 4	    1.05000	    0.95000;
	212	 1	 0.0	 0.0	 0.0	 0.0	 1	    1.00000	    0.00000	 46.0	 4	    1.05000	    0.95000;
	213	 1	 0.0	 0.0	 0.0	 0.0	 1	    1.00000	    0.00000	 115.0	 4	    1.05000	    0.95000;
	214	 1	 25.65	 -0.65	 0.0	 0.0	 1	    1.00000	    0.00000	 46.0	 4	    1.05000	    0.95000;
	215	 1	 5.18	 2.53	 0.0	 0.0	 1	    1.00000	    0.00000	 115.0	 4	    1.05000	    0.95000;
	216	 1	 32.88	 3.02	 0.0	 0.0	 1	    1.00000	    0.00000	 115.0	 4	    1.05000	    0.95000;
	217	 1	 28.11	 12.84	 0.0	 0.0	 1	    1.00000	    0.00000	 20.0	 4	    1.05000	    0.95000;
	218	 1	 23.19	 1.07	 0.0	 0.0	 1	    1.00000	    0.00000	 46.0	 4	    1.05000	    0.95000;
	219	 1	 10.89	 5.09	 0.0	 0.0	 1	    1.00000	    0.00000	 115.0	 4	    1.05000	    0.95000;
	220	 1	 6.91	 1.11	 0.0	 0.0	 1	    1.00000	    0.00000	 46.0	 4	    1.05000	    0.95000;
	221	 1	 42.74	 4.65	 0.0	 0.0	 1	    1.00000	    0.00000	 115.0	 4	    1.05000	    0.95000;
	222	 1	 3.76	 -5.85	 0.0	 0.0	 1	    1.00000	    0.00000	 115.0	 4	    1.05000	    0.95000;
	223	 1	 7.97	 0.19	 0.0	 12.54	 1	    1.00000	    0.00000	 115.0	 4	    1.05000	    0.95000;
	224	 1	 0.0	 0.0	 0.0	 0.0	 1	    1.00000	    0.00000	 22.0	 4	    1.05000	    0.95000;
	225	 1	 0.0	 0.0	 0.0	 3.413	 1	    1.00000	    0.00000	 115.0	 4	    1.05000	    0.95000;
	226	 1	 55.22	 -10.55	 0.0	 0.0	 1	    1.00000	    0.00000	 115.0	 4	    1.05000	    0.95000;
	227	 1	 -1.75	 0.42	 0.0	 0.0	 1	    1.00000	    0.00000	 115.0	 4	    1.05000	    0.95000;
	228	 1	 18.95	 5.29	 0.0	 0.0	 1	    1.00000	    0.00000	 46.0	 4	    1.05000	    0.95000;
	229	 1	 28.84	 2.37	 0.0	 0.0	 1	    0.99900	    0.00000	 115.0	 4	    1.05000	    0.94799;
	230	 1	 0.0	 0.0	 0.0	 0.0	 1	    1.00000	    0.00000	 115.0	 4	    1.05000	    0.95000;
	231	 1	 2.81	 -2.26	 0.0	 0.0	 1	    1.00000	    0.00000	 115.0	 4	    1.05000	    0.95000;
	232	 1	 0.0	 0.0	 0.0	 0.0	 1	    1.00000	    0.00000	 115.0	 4	    1.05000	    0.95000;
	233	 1	 10.89	 -0.18	 0.0	 0.0	 1	    1.00000	    0.00000	 46.0	 4	    1.05000	    0.95000;
	234	 1	 0.0	 0.0	 0.0	 0.0	 1	    1.00000	    0.00000	 230.0	 4	    1.05000	    0.95000;
	235	 1	 5.89	 -0.53	 0.0	 0.0	 1	    1.00000	    0.00000	 115.0	 4	    1.05000	    0.95000;
	236	 1	 8.99	 -0.77	 0.0	 0.0	 1	    1.00000	    0.00000	 115.0	 4	    1.05000	    0.95000;
	237	 1	 0.0	 0.0	 0.0	 0.0	 1	    1.00000	    0.00000	 46.0	 4	    1.05000	    0.95000;
	238	 1	 0.0	 0.0	 0.0	 0.0	 1	    1.00000	    0.00000	 115.0	 4	    1.05000	    0.95000;
	239	 1	 1.97	 7.63	 0.0	 0.0	 1	    1.00000	    0.00000	 115.0	 4	    1.05000	    0.95000;
	240	 1	 0.0	 0.0	 0.0	 0.0	 1	    1.00000	    0.00000	 46.0	 4	    1.05000	    0.95000;
	241	 1	 20.22	 -9.56	 0.0	 -0.0026071761429	 1	    1.00000	    0.00000	 115.0	 4	    1.05000	    0.95000;
	242	 1	 0.0	 0.0	 0.0	 0.0	 1	    1.00000	    0.00000	 115.0	 4	    1.05000	    0.95000;
	243	 2	 0.0	 0.0	 0.0	 0.0	 1	    1.00000	    0.00000	 230.0	 4	    1.05000	    0.95000;
	244	 1	 25.32	 0.18	 0.0	 0.0	 1	    1.00000	    0.00000	 115.0	 4	    1.05000	    0.95000;
	245	 1	 0.0	 0.0	 0.0	 0.0	 1	    1.00000	    0.00000	 115.0	 4	    1.05000	    0.95000;
	246	 1	 10.43	 2.32	 0.0	 0.0	 1	    1.00000	    0.00000	 115.0	 4	    1.05000	    0.95000;
	247	 1	 0.0	 0.0	 0.0	 0.0	 1	    1.00000	    0.00000	 46.0	 4	    1.05000	    0.95000;
	248	 1	 12.56	 2.36	 0.0	 0.0	 1	    1.00000	    0.00000	 46.0	 4	    1.05000	    0.95000;
	249	 1	 13.07	 1.25	 0.0	 0.0	 1	    1.00000	    0.00000	 46.0	 4	    1.05000	    0.95000;
	250	 1	 0.0	 0.0	 0.0	 0.0	 1	    1.00000	    0.00000	 1.0	 5	    1.05000	    0.95000;
	251	 1	 0.0	 0.0	 0.0	 -62.2740927245	 1	    1.00000	    0.00000	 230.0	 5	    1.05000	    0.95000;
	252	 1	 0.0	 0.0	 0.0	 0.0	 1	    1.00000	    0.00000	 18.0	 5	    1.05000	    0.95000;
	253	 1	 44.21	 6.62	 0.0	 0.0	 1	    1.00000	    0.00000	 26.4	 5	    1.05000	    0.95000;
	254	 1	 16.30	 -1.50	 0.0	 0.0	 1	    1.00000	    0.00000	 230.0	 5	    1.05000	    0.95000;
	255	 1	 0.0	 0.0	 0.0	 0.0	 1	    1.00000	    0.00000	 230.0	 5	    1.05000	    0.95000;
	256	 1	 54.94	 1.96	 0.0	 0.0	 1	    1.00000	    0.00000	 26.4	 5	    1.05000	    0.95000;
	257	 1	 0.0	 0.0	 0.0	 0.0	 1	    1.00000	    0.00000	 13.8	 5	    1.05000	    0.95000;
	258	 1	 0.0	 0.0	 0.0	 0.0	 1	    1.00000	    0.00000	 13.8	 5	    1.05000	    0.95000;
	259	 1	 15.78	 0.57	 0.0	 0.0	 1	    1.00000	    0.00000	 230.0	 5	    1.05000	    0.95000;
	260	 1	 0.0	 0.0	 0.0	 0.0	 1	    1.00000	    0.00000	 230.0	 5	    1.05000	    0.95000;
	261	 1	 0.0	 0.0	 0.0	 0.0	 1	    1.00000	    0.00000	 13.8	 5	    1.05000	    0.95000;
	262	 1	 0.0	 0.0	 0.0	 0.0	 1	    1.00000	    0.00000	 13.8	 5	    1.05000	    0.95000;
	263	 2	 0.0	 0.0	 0.0	 0.0	 1	    1.00000	    0.00000	 13.8	 5	    1.05000	    0.95000;
	264	 1	 33.14	 -3.75	 0.0	 0.0	 1	    1.00000	    0.00000	 138.0	 5	    1.05000	    0.95000;
	265	 1	 0.0	 0.0	 0.0	 0.0	 1	    1.00000	    0.00000	 230.0	 5	    1.05000	    0.95000;
	266	 1	 0.0	 0.0	 0.0	 0.0	 1	    1.00000	    0.00000	 138.0	 5	    1.05000	    0.95000;
	267	 2	 46.02	 3.09	 0.0	 0.0	 1	    1.00000	    0.00000	 230.0	 5	    1.05000	    0.95000;
	268	 1	 0.0	 0.0	 0.0	 0.0	 1	    1.00000	    0.00000	 230.0	 5	    1.05000	    0.95000;
	269	 2	 76.90	 9.25	 0.0	 0.0	 1	    1.00000	    0.00000	 230.0	 5	    1.05000	    0.95000;
	270	 1	 0.0	 0.0	 0.0	 0.0	 1	    1.00000	    0.00000	 230.0	 5	    1.05000	    0.95000;
	271	 1	 0.0	 0.0	 0.0	 0.0	 1	    1.00000	    0.00000	 230.0	 5	    1.05000	    0.95000;
	272	 1	 0.0	 0.0	 0.0	 0.0	 1	    1.00000	    0.00000	 1.0	 5	    1.05000	    0.95000;
	273	 1	 32.51	 8.11	 0.0	 0.0	 1	    1.00000	    0.00000	 230.0	 5	    1.05000	    0.95000;
	274	 2	 0.0	 0.0	 0.0	 0.0	 1	    1.00000	    0.00000	 13.8	 5	    1.05000	    0.95000;
	275	 1	 0.0	 0.0	 0.0	 0.0	 1	    1.00000	    0.00000	 230.0	 5	    1.05000	    0.95000;
	276	 1	 0.0	 0.0	 0.0	 0.0	 1	    1.00000	    0.00000	 13.8	 5	    1.05000	    0.95000;
	277	 1	 0.0	 0.0	 0.0	 0.0	 1	    1.00000	    0.00000	 1.0	 5	    1.05000	    0.95000;
	278	 1	 0.0	 0.0	 0.0	 0.0	 1	    1.00000	    0.00000	 138.0	 5	    1.05000	    0.95000;
	279	 1	 0.0	 0.0	 0.0	 0.0	 1	    1.00000	    0.00000	 17.0	 5	    1.05000	    0.95000;
	280	 1	 0.0	 0.0	 0.0	 0.0	 1	    1.00000	    0.00000	 230.0	 5	    1.05000	    0.95000;
	281	 1	 0.0	 0.0	 0.0	 0.0	 1	    1.00000	    0.00000	 138.0	 5	    1.05000	    0.95000;
	282	 1	 0.0	 0.0	 0.0	 -49.8722633966	 1	    1.00000	    0.00000	 230.0	 5	    1.05000	    0.95000;
	283	 1	 20.27	 1.28	 0.0	 0.0	 1	    1.00000	    0.00000	 13.8	 5	    1.05000	    0.95000;
	284	 1	 86.49	 2.70	 0.0	 0.0	 1	    1.00000	    0.00000	 138.0	 5	    1.05000	    0.95000;
	285	 1	 0.0	 0.0	 0.0	 0.0	 1	    1.00000	    0.00000	 13.8	 5	    1.05000	    0.95000;
	286	 2	 0.0	 0.0	 0.0	 0.0	 1	    1.00000	    0.00000	 500.0	 5	    1.05000	    0.95000;
	287	 1	 41.29	 22.56	 0.0	 0.0	 1	    1.00000	    0.00000	 230.0	 5	    1.05000	    0.95000;
	288	 1	 0.0	 0.0	 0.0	 0.0	 1	    1.00000	    0.00000	 13.8	 5	    1.05000	    0.95000;
	289	 1	 0.0	 0.0	 0.0	 0.0	 1	    1.00000	    0.00000	 18.0	 5	    1.05000	    0.95000;
	290	 1	 0.0	 0.0	 0.0	 0.0	 1	    1.00000	    0.00000	 230.0	 5	    1.05000	    0.95000;
	291	 1	 17.02	 2.12	 0.0	 0.0	 1	    1.00000	    0.00000	 26.4	 5	    1.05000	    0.95000;
	292	 1	 379.46	 72.31	 0.0	 0.0	 1	    1.00000	    0.00000	 345.0	 5	    1.05000	    0.95000;
	293	 2	 0.0	 0.0	 0.0	 0.0	 1	    1.00000	    0.00000	 13.8	 5	    1.05000	    0.95000;
	294	 1	 55.18	 1.57	 0.0	 -4.561	 1	    1.00000	    0.00000	 69.0	 5	    1.05000	    0.95000;
	295	 1	 0.0	 0.0	 0.0	 0.0	 1	    1.00000	    0.00000	 230.0	 5	    1.05000	    0.95000;
	296	 1	 38.53	 16.75	 0.0	 0.0	 1	    1.00000	    0.00000	 138.0	 5	    1.05000	    0.95000;
	297	 1	 0.0	 0.0	 0.0	 0.0	 1	    1.00000	    0.00000	 230.0	 5	    1.05000	    0.95000;
	298	 1	 103.40	 22.83	 0.0	 9.99996483325	 1	    1.00000	    0.00000	 26.4	 5	    1.05000	    0.95000;
	299	 1	 0.0	 0.0	 0.0	 0.0	 1	    1.00000	    0.00000	 345.0	 5	    1.05000	    0.95000;
	300	 1	 0.0	 0.0	 0.0	 -22.762	 1	    1.00000	    0.00000	 345.0	 5	    1.05000	    0.95000;
	301	 1	 0.0	 0.0	 0.0	 0.0	 1	    1.00000	    0.00000	 230.0	 5	    1.05000	    0.95000;
	302	 1	 0.0	 0.0	 0.0	 0.0	 1	    1.00000	    0.00000	 13.8	 5	    1.05000	    0.95000;
	303	 1	 25.12	 0.93	 0.0	 0.0	 1	    1.00000	    0.00000	 13.8	 5	    1.05000	    0.95000;
	304	 1	 0.0	 0.0	 0.0	 0.0	 1	    1.00000	    0.00000	 1.0	 5	    1.05000	    0.95000;
	305	 2	 0.0	 0.0	 0.0	 0.0	 1	    1.00000	    0.00000	 138.0	 5	    1.05000	    0.95000;
	306	 1	 0.0	 0.0	 0.0	 0.0	 1	    1.00000	    0.00000	 1.0	 5	    1.05000	    0.95000;
	307	 1	 0.0	 0.0	 0.0	 0.0	 1	    1.00000	    0.00000	 13.8	 5	    1.05000	    0.95000;
	308	 1	 0.0	 0.0	 0.0	 0.0	 1	    1.00000	    0.00000	 138.0	 5	    1.05000	    0.95000;
	309	 1	 1.91	 -8.19	 0.0	 0.0	 1	    1.00000	    0.00000	 18.0	 5	    1.05000	    0.95000;
	310	 1	 0.0	 0.0	 0.0	 0.0	 1	    1.00000	    0.00000	 138.0	 5	    1.05000	    0.95000;
	311	 1	 0.0	 0.0	 0.0	 0.0	 1	    1.00000	    0.00000	 138.0	 5	    1.05000	    0.95000;
	312	 1	 9.42	 2.48	 0.0	 0.0	 1	    1.00000	    0.00000	 230.0	 5	    1.05000	    0.95000;
	313	 1	 69.26	 38.23	 0.0	 0.0	 1	    1.00000	    0.00000	 138.0	 5	    1.05000	    0.95000;