%%%%%%%%%%%%%%%%%%%%%%%%%%%%%%%%%%%%%%%%%%%%%%%%%%%%%%%%%%%%%%%%%%%%%%%%%%%
%%%%                                                                  %%%%%
%%%%    IEEE PES Power Grid Library - Optimal Power Flow - v17.07     %%%%%
%%%%          (https://github.com/power-grid-lib/pglib-opf)           %%%%%
%%%%             Benchmark Group - Active Power Increase              %%%%%
%%%%                         27 - June - 2017                         %%%%%
%%%%                                                                  %%%%%
%%%%%%%%%%%%%%%%%%%%%%%%%%%%%%%%%%%%%%%%%%%%%%%%%%%%%%%%%%%%%%%%%%%%%%%%%%%
function mpc = pglib_opf_case2746wp_mp__api
mpc.version = '2';
mpc.baseMVA = 100.0;

%% area data
%	area	refbus
mpc.areas = [
	1	 18;
];

%% bus data
%	bus_i	type	Pd	Qd	Gs	Bs	area	Vm	Va	baseKV	zone	Vmax	Vmin
mpc.bus = [
	1	 1	 0.00	 0.00	 0.0	 0.0	 1	    1.09306	   -1.74768	 220.0	 1	    1.11000	    0.95000;
	2	 1	 0.00	 0.00	 0.0	 0.0	 1	    1.09694	   -0.46266	 220.0	 1	    1.11000	    0.95000;
	3	 1	 0.00	 0.00	 0.0	 0.0	 1	    1.06839	   -6.27464	 220.0	 1	    1.11000	    0.95000;
	4	 1	 0.00	 0.00	 0.0	 0.0	 1	    1.09143	   -4.29620	 220.0	 1	    1.11000	    0.95000;
	5	 1	 0.00	 0.00	 0.0	 0.0	 1	    1.09146	   -4.30181	 220.0	 1	    1.11000	    0.95000;
	6	 1	 0.00	 0.00	 0.0	 0.0	 1	    1.06867	   -5.89985	 220.0	 1	    1.11000	    0.95000;
	7	 1	 0.00	 0.00	 0.0	 0.0	 1	    1.06879	   -5.87953	 220.0	 1	    1.11000	    0.95000;
	8	 1	 0.00	 0.00	 0.0	 0.0	 1	    1.03484	   -2.00473	 400.0	 1	    1.05000	    0.95000;
	9	 1	 0.00	 0.00	 0.0	 0.0	 1	    1.03482	   -1.99309	 400.0	 1	    1.05000	    0.95000;
	10	 1	 0.00	 0.00	 0.0	 0.0	 1	    1.05319	   -7.80550	 220.0	 1	    1.11000	    0.95000;
	11	 1	 0.00	 0.00	 0.0	 0.0	 1	    1.05312	   -7.81000	 220.0	 1	    1.11000	    0.95000;
	12	 1	 0.00	 0.00	 0.0	 0.0	 1	    1.05313	   -7.80148	 220.0	 1	    1.11000	    0.95000;
	13	 1	 0.00	 0.00	 0.0	 0.0	 1	    1.03847	   -2.95595	 400.0	 1	    1.05000	    0.95000;
	14	 1	 0.00	 0.00	 0.0	 0.0	 1	    1.03849	   -2.94705	 400.0	 1	    1.05000	    0.95000;
	15	 1	 0.00	 0.00	 0.0	 0.0	 1	    1.03549	   -2.19446	 400.0	 1	    1.05000	    0.95000;
	16	 1	 0.00	 0.00	 0.0	 0.0	 1	    1.03549	   -2.19446	 400.0	 1	    1.05000	    0.95000;
	17	 2	 11.14	 40.00	 0.0	 0.0	 1	    1.11000	   -0.41200	 220.0	 1	    1.11000	    0.95000;
	18	 2	 14.17	 40.00	 0.0	 0.0	 1	    1.11000	   -0.41114	 220.0	 1	    1.11000	    0.95000;
	19	 1	 0.00	 0.00	 0.0	 0.0	 1	    1.09329	   -3.70265	 220.0	 1	    1.11000	    0.95000;
	20	 1	 0.00	 0.00	 0.0	 0.0	 1	    1.09332	   -3.70109	 220.0	 1	    1.11000	    0.95000;
	21	 1	 0.00	 0.00	 0.0	 0.0	 1	    1.07249	   -5.09281	 220.0	 1	    1.11000	    0.95000;
	22	 1	 0.00	 0.00	 0.0	 0.0	 1	    1.07245	   -5.09274	 220.0	 1	    1.11000	    0.95000;
	23	 1	 0.00	 0.00	 0.0	 0.0	 1	    1.05506	   -7.72314	 220.0	 1	    1.11000	    0.95000;
	24	 1	 0.00	 0.00	 0.0	 0.0	 1	    1.09461	   -2.78003	 220.0	 1	    1.11000	    0.95000;
	25	 1	 0.00	 0.00	 0.0	 0.0	 1	    1.02403	   -5.37271	 400.0	 1	    1.05000	    0.95000;
	26	 2	 47.32	 72.05	 0.0	 0.0	 1	    1.10192	   -1.40016	 220.0	 1	    1.11000	    0.95000;
	27	 2	 86.55	 122.06	 0.0	 0.0	 1	    1.10398	   -0.13320	 220.0	 1	    1.11000	    0.95000;
	28	 3	 60.74	 110.00	 0.0	 0.0	 1	    1.03932	    0.00000	 400.0	 1	    1.05000	    0.95000;
	29	 2	 60.84	 90.00	 0.0	 0.0	 1	    1.03939	   -0.00480	 400.0	 1	    1.05000	    0.95000;
	30	 1	 0.00	 0.00	 0.0	 0.0	 1	    1.05807	   -8.64855	 220.0	 1	    1.11000	    0.95000;
	31	 1	 0.00	 0.00	 0.0	 0.0	 1	    1.04069	   -1.60206	 400.0	 1	    1.05000	    0.95000;
	32	 1	 0.00	 0.00	 0.0	 0.0	 1	    1.05088	   -8.18339	 220.0	 1	    1.11000	    0.95000;
	33	 1	 0.00	 0.00	 0.0	 0.0	 1	    1.09461	   -2.77906	 220.0	 1	    1.11000	    0.95000;
	34	 1	 0.00	 0.00	 0.0	 0.0	 1	    1.09526	   -5.79672	 220.0	 1	    1.11000	    0.95000;
	35	 1	 0.00	 0.00	 0.0	 0.0	 1	    1.10058	   -0.64710	 220.0	 2	    1.11000	    0.95000;
	36	 1	 0.00	 0.00	 0.0	 0.0	 1	    1.10657	   -2.43416	 220.0	 2	    1.11000	    0.95000;
	37	 1	 0.00	 0.00	 0.0	 0.0	 1	    1.10770	   -0.69660	 220.0	 2	    1.11000	    0.95000;
	38	 1	 0.00	 0.00	 0.0	 0.0	 1	    1.10771	   -0.70232	 220.0	 2	    1.11000	    0.95000;
	39	 1	 0.00	 0.00	 0.0	 0.0	 1	    1.08972	   -0.57877	 220.0	 2	    1.11000	    0.95000;
	40	 1	 0.00	 0.00	 0.0	 0.0	 1	    1.10761	   -2.76684	 220.0	 2	    1.11000	    0.95000;
	41	 1	 0.00	 0.00	 0.0	 0.0	 1	    1.10759	   -2.76784	 220.0	 2	    1.11000	    0.95000;
	42	 1	 0.00	 0.00	 0.0	 0.0	 1	    1.04209	   -2.41476	 400.0	 2	    1.05000	    0.95000;
	43	 2	 11.44	 0.00	 0.0	 0.0	 1	    1.11000	    0.22441	 220.0	 2	    1.11000	    0.95000;
	44	 2	 24.00	 0.00	 0.0	 0.0	 1	    1.11000	    0.22558	 220.0	 2	    1.11000	    0.95000;
	45	 2	 20.00	 0.00	 0.0	 0.0	 1	    1.04534	    3.76396	 400.0	 2	    1.05000	    0.95000;
	46	 1	 0.00	 0.00	 0.0	 0.0	 1	    1.04536	    3.74780	 400.0	 2	    1.05000	    0.95000;
	47	 1	 0.00	 0.00	 0.0	 0.0	 1	    1.10449	   -3.27308	 220.0	 2	    1.11000	    0.95000;
	48	 1	 0.00	 0.00	 0.0	 0.0	 1	    1.04651	   -7.58682	 400.0	 2	    1.05000	    0.95000;
	49	 1	 0.00	 0.00	 0.0	 0.0	 1	    1.04650	   -7.59508	 400.0	 2	    1.05000	    0.95000;
	50	 1	 0.00	 0.00	 0.0	 0.0	 1	    1.05000	    2.14038	 400.0	 2	    1.05000	    0.95000;
	51	 1	 0.00	 0.00	 0.0	 0.0	 1	    1.09346	    1.50206	 220.0	 2	    1.11000	    0.95000;
	52	 1	 0.00	 0.00	 0.0	 0.0	 1	    1.09339	    1.51561	 220.0	 2	    1.11000	    0.95000;
	53	 1	 0.00	 0.00	 0.0	 0.0	 1	    1.03942	   -0.70374	 400.0	 2	    1.05000	    0.95000;
	54	 1	 0.00	 0.00	 0.0	 0.0	 1	    1.03942	   -0.71344	 400.0	 2	    1.05000	    0.95000;
	55	 2	 12.00	 0.00	 0.0	 0.0	 1	    1.11000	    0.48545	 220.0	 2	    1.11000	    0.95000;
	56	 2	 11.44	 0.00	 0.0	 0.0	 1	    1.11000	    0.50782	 220.0	 2	    1.11000	    0.95000;
	57	 2	 12.00	 0.00	 0.0	 0.0	 1	    1.03925	   -1.94689	 400.0	 2	    1.05000	    0.95000;
	58	 2	 11.44	 0.00	 0.0	 0.0	 1	    1.03926	   -1.94951	 400.0	 2	    1.05000	    0.95000;
	59	 2	 169.59	 60.00	 0.0	 0.0	 1	    1.10999	   -0.12198	 220.0	 2	    1.11000	    0.95000;
	60	 1	 0.00	 0.00	 0.0	 0.0	 1	    1.10997	   -0.12261	 220.0	 2	    1.11000	    0.95000;
	61	 1	 0.00	 0.00	 0.0	 0.0	 1	    1.10545	   -2.91541	 220.0	 2	    1.11000	    0.95000;
	62	 1	 0.00	 0.00	 0.0	 0.0	 1	    1.10750	   -1.50479	 220.0	 2	    1.11000	    0.95000;
	63	 1	 0.00	 0.00	 0.0	 0.0	 1	    1.10749	   -1.50060	 220.0	 2	    1.11000	    0.95000;
	64	 1	 0.00	 0.00	 0.0	 0.0	 1	    1.04973	   -3.98233	 400.0	 2	    1.05000	    0.95000;
	65	 1	 0.00	 0.00	 0.0	 0.0	 1	    1.04977	   -3.99665	 400.0	 2	    1.05000	    0.95000;
	66	 1	 0.00	 0.00	 0.0	 0.0	 1	    1.10088	   -1.41423	 220.0	 2	    1.11000	    0.95000;
	67	 1	 0.00	 0.00	 0.0	 0.0	 1	    1.10275	   -1.21218	 220.0	 2	    1.11000	    0.95000;
	68	 1	 0.00	 0.00	 0.0	 0.0	 1	    1.08917	    3.75425	 220.0	 2	    1.11000	    0.95000;
	69	 1	 0.00	 0.00	 0.0	 0.0	 1	    1.09924	   -2.95386	 220.0	 3	    1.11000	    0.95000;
	70	 1	 7.12	 0.00	 0.0	 0.0	 1	    1.10997	   -2.83518	 220.0	 3	    1.11000	    0.95000;
	71	 1	 8.41	 0.93	 0.0	 0.0	 1	    1.10992	   -2.83149	 220.0	 3	    1.11000	    0.95000;
	72	 1	 0.00	 0.00	 0.0	 0.0	 1	    1.10404	   -2.56788	 220.0	 3	    1.11000	    0.95000;
	73	 1	 0.00	 0.00	 0.0	 0.0	 1	    1.10410	   -2.55213	 220.0	 3	    1.11000	    0.95000;
	74	 1	 0.00	 0.00	 0.0	 0.0	 1	    1.10715	   -0.58015	 220.0	 3	    1.11000	    0.95000;
	75	 1	 0.00	 0.00	 0.0	 0.0	 1	    1.10713	   -0.58434	 220.0	 3	    1.11000	    0.95000;
	76	 1	 0.00	 0.00	 0.0	 0.0	 1	    1.10724	   -2.92125	 220.0	 3	    1.11000	    0.95000;
	77	 1	 0.00	 0.00	 0.0	 0.0	 1	    1.10722	   -2.92645	 220.0	 3	    1.11000	    0.95000;
	78	 2	 27.33	 70.00	 0.0	 0.0	 1	    1.10950	   -1.49418	 220.0	 3	    1.11000	    0.95000;
	79	 2	 9.11	 21.00	 0.0	 0.0	 1	    1.10928	   -1.64535	 220.0	 3	    1.11000	    0.95000;
	80	 1	 10.46	 2.61	 0.0	 0.0	 1	    1.10169	   -2.25737	 220.0	 3	    1.11000	    0.95000;
	81	 1	 0.00	 0.00	 0.0	 0.0	 1	    1.10170	   -2.26109	 220.0	 3	    1.11000	    0.95000;
	82	 2	 35.43	 108.00	 0.0	 0.0	 1	    1.03971	   -4.95943	 400.0	 3	    1.05000	    0.95000;
	83	 1	 0.00	 0.00	 0.0	 0.0	 1	    1.11000	   -5.92810	 220.0	 3	    1.11000	    0.95000;
	84	 1	 0.00	 0.00	 0.0	 0.0	 1	    1.10668	   -0.64765	 220.0	 3	    1.11000	    0.95000;
	85	 1	 0.00	 0.00	 0.0	 0.0	 1	    1.10670	   -0.65915	 220.0	 3	    1.11000	    0.95000;
	86	 1	 38.36	 12.35	 0.0	 0.0	 1	    1.10010	   -2.69561	 220.0	 3	    1.11000	    0.95000;
	87	 1	 0.00	 0.00	 0.0	 0.0	 1	    1.10008	   -2.69997	 220.0	 3	    1.11000	    0.95000;
	88	 1	 0.00	 0.00	 0.0	 0.0	 1	    1.10633	   -0.82566	 220.0	 3	    1.11000	    0.95000;
	89	 1	 0.00	 0.00	 0.0	 0.0	 1	    1.10635	   -0.82876	 220.0	 3	    1.11000	    0.95000;
	90	 1	 0.00	 0.00	 0.0	 0.0	 1	    1.10280	   -2.32353	 220.0	 3	    1.11000	    0.95000;
	91	 1	 0.00	 0.00	 0.0	 0.0	 1	    1.10279	   -2.32509	 220.0	 3	    1.11000	    0.95000;
	92	 1	 0.00	 0.00	 0.0	 0.0	 1	    1.04134	   -1.33559	 400.0	 3	    1.05000	    0.95000;
	93	 1	 0.00	 0.00	 0.0	 0.0	 1	    1.04134	   -1.33653	 400.0	 3	    1.05000	    0.95000;
	94	 1	 0.00	 0.00	 0.0	 0.0	 1	    1.10999	   -0.33037	 220.0	 3	    1.11000	    0.95000;
	95	 1	 0.00	 0.00	 0.0	 0.0	 1	    1.11000	   -0.33143	 220.0	 3	    1.11000	    0.95000;
	96	 1	 0.00	 0.00	 0.0	 0.0	 1	    1.10823	   -2.53948	 220.0	 3	    1.11000	    0.95000;
	97	 1	 0.00	 0.00	 0.0	 0.0	 1	    1.10825	   -2.55628	 220.0	 3	    1.11000	    0.95000;
	98	 1	 16.23	 7.27	 0.0	 0.0	 1	    1.10589	   -2.17426	 220.0	 3	    1.11000	    0.95000;
	99	 1	 7.86	 0.26	 0.0	 0.0	 1	    1.10588	   -2.17726	 220.0	 3	    1.11000	    0.95000;
	100	 1	 0.00	 0.00	 0.0	 0.0	 1	    1.11000	   -2.81259	 220.0	 3	    1.11000	    0.95000;
	101	 1	 0.00	 0.00	 0.0	 0.0	 1	    1.11000	   -2.81888	 220.0	 3	    1.11000	    0.95000;
	102	 1	 0.00	 0.00	 0.0	 0.0	 1	    1.10541	   -3.38634	 220.0	 3	    1.11000	    0.95000;
	103	 1	 0.00	 0.00	 0.0	 0.0	 1	    1.10536	   -3.38986	 220.0	 3	    1.11000	    0.95000;
	104	 2	 14.17	 40.00	 0.0	 0.0	 1	    1.11000	    0.42164	 220.0	 3	    1.11000	    0.95000;
	105	 2	 14.17	 40.00	 0.0	 0.0	 1	    1.11000	    0.44472	 220.0	 3	    1.11000	    0.95000;
	106	 2	 7.09	 18.00	 0.0	 0.0	 1	    1.10797	   -0.43737	 220.0	 3	    1.11000	    0.95000;
	107	 2	 8.10	 15.00	 0.0	 0.0	 1	    1.10807	   -0.43238	 220.0	 3	    1.11000	    0.95000;
	108	 1	 1.04	 0.00	 0.0	 0.0	 1	    1.10399	   -2.42791	 220.0	 3	    1.11000	    0.95000;
	109	 1	 1.26	 0.00	 0.0	 0.0	 1	    1.10403	   -2.42672	 220.0	 3	    1.11000	    0.95000;
	110	 1	 0.00	 0.00	 0.0	 0.0	 1	    1.10828	   -3.05013	 220.0	 3	    1.11000	    0.95000;
	111	 1	 0.00	 0.00	 0.0	 0.0	 1	    1.10291	   -1.29481	 220.0	 3	    1.11000	    0.95000;
	112	 1	 0.00	 0.00	 0.0	 0.0	 1	    1.10292	   -1.29960	 220.0	 3	    1.11000	    0.95000;
	113	 1	 0.00	 0.00	 0.0	 0.0	 1	    1.10141	   -2.52335	 220.0	 3	    1.11000	    0.95000;
	114	 1	 0.00	 0.00	 0.0	 0.0	 1	    1.10146	   -2.51559	 220.0	 3	    1.11000	    0.95000;
	115	 1	 0.00	 0.00	 0.0	 0.0	 1	    1.04117	   -3.20272	 400.0	 3	    1.05000	    0.95000;
	116	 2	 0.00	 0.00	 0.0	 0.0	 1	    1.10999	   -1.37651	 220.0	 3	    1.11000	    0.95000;
	117	 2	 8.10	 15.00	 0.0	 0.0	 1	    1.11000	   -1.36604	 220.0	 3	    1.11000	    0.95000;
	118	 2	 5.57	 10.00	 0.0	 0.0	 1	    1.10671	   -2.77271	 220.0	 3	    1.11000	    0.95000;
	119	 1	 0.00	 0.00	 0.0	 0.0	 1	    1.10673	   -2.77777	 220.0	 3	    1.11000	    0.95000;
	120	 1	 0.00	 0.00	 0.0	 0.0	 1	    1.04998	   -3.35993	 400.0	 3	    1.05000	    0.95000;
	121	 1	 0.00	 0.00	 0.0	 0.0	 1	    1.05000	   -3.35477	 400.0	 3	    1.05000	    0.95000;
	122	 1	 0.00	 0.00	 0.0	 0.0	 1	    1.04999	   -2.79695	 400.0	 3	    1.05000	    0.95000;
	123	 1	 0.00	 0.00	 0.0	 0.0	 1	    1.05000	   -2.79355	 400.0	 3	    1.05000	    0.95000;
	124	 1	 0.00	 0.00	 0.0	 0.0	 1	    1.10730	   -3.25262	 220.0	 3	    1.11000	    0.95000;
	125	 2	 18.57	 21.86	 0.0	 0.0	 1	    1.11000	    0.26862	 220.0	 3	    1.11000	    0.95000;
	126	 2	 28.82	 34.29	 0.0	 0.0	 1	    1.10998	    0.25268	 220.0	 3	    1.11000	    0.95000;
	127	 2	 28.35	 66.00	 0.0	 0.0	 1	    1.03470	   -2.84545	 400.0	 3	    1.05000	    0.95000;
	128	 1	 0.00	 0.00	 0.0	 0.0	 1	    1.03477	   -2.84088	 400.0	 3	    1.05000	    0.95000;
	129	 1	 0.00	 0.00	 0.0	 0.0	 1	    1.09956	   -2.78592	 220.0	 3	    1.11000	    0.95000;
	130	 1	 0.00	 0.00	 0.0	 0.0	 1	    1.09959	   -2.77960	 220.0	 3	    1.11000	    0.95000;
	131	 1	 0.00	 0.00	 0.0	 0.0	 1	    1.10158	   -2.43170	 220.0	 3	    1.11000	    0.95000;
	132	 2	 3.04	 18.00	 0.0	 0.0	 1	    1.10774	   -2.71415	 220.0	 3	    1.11000	    0.95000;
	133	 2	 2.02	 6.00	 0.0	 0.0	 1	    1.10745	   -2.82385	 220.0	 3	    1.11000	    0.95000;
	134	 2	 15.64	 12.88	 0.0	 0.0	 1	    1.10422	   -4.83458	 220.0	 4	    1.11000	    0.95000;
	135	 2	 5.25	 -0.36	 0.0	 0.0	 1	    1.10418	   -4.85161	 220.0	 4	    1.11000	    0.95000;
	136	 1	 0.00	 0.00	 0.0	 0.0	 1	    1.08919	  -14.25202	 220.0	 4	    1.11000	    0.95000;
	137	 1	 0.00	 0.00	 0.0	 0.0	 1	    1.09264	  -13.56674	 220.0	 4	    1.11000	    0.95000;
	138	 1	 0.00	 0.00	 0.0	 0.0	 1	    1.01462	  -10.94909	 400.0	 4	    1.05000	    0.95000;
	139	 1	 0.00	 0.00	 0.0	 0.0	 1	    1.01465	  -10.94825	 400.0	 4	    1.05000	    0.95000;
	140	 1	 0.00	 0.00	 0.0	 0.0	 1	    1.09793	  -14.31127	 220.0	 4	    1.11000	    0.95000;
	141	 1	 0.00	 0.00	 0.0	 0.0	 1	    1.10306	  -17.31435	 220.0	 4	    1.11000	    0.95000;
	142	 1	 0.00	 0.00	 0.0	 0.0	 1	    1.10306	  -17.31435	 220.0	 4	    1.11000	    0.95000;
	143	 1	 0.00	 0.00	 0.0	 0.0	 1	    1.11000	  -15.95081	 220.0	 4	    1.11000	    0.95000;
	144	 1	 0.00	 0.00	 0.0	 0.0	 1	    1.10052	  -13.78941	 220.0	 4	    1.11000	    0.95000;
	145	 1	 0.00	 0.00	 0.0	 0.0	 1	    1.10052	  -13.78941	 220.0	 4	    1.11000	    0.95000;
	146	 2	 10.95	 -0.47	 0.0	 0.0	 1	    1.10297	   -6.25957	 220.0	 4	    1.11000	    0.95000;
	147	 2	 10.81	 -0.47	 0.0	 0.0	 1	    1.10297	   -6.27087	 220.0	 4	    1.11000	    0.95000;
	148	 2	 11.64	 6.86	 0.0	 0.0	 1	    1.10725	  -16.16230	 220.0	 4	    1.11000	    0.95000;
	149	 1	 1.65	 3.04	 0.0	 0.0	 1	    1.10722	  -16.15934	 220.0	 4	    1.11000	    0.95000;
	150	 2	 8.09	 -0.38	 0.0	 0.0	 1	    1.01888	  -13.96401	 400.0	 4	    1.05000	    0.95000;
	151	 2	 16.17	 -0.76	 0.0	 0.0	 1	    1.01888	  -13.96075	 400.0	 4	    1.05000	    0.95000;
	152	 1	 0.00	 0.00	 0.0	 0.0	 1	    1.07714	  -16.66635	 220.0	 4	    1.11000	    0.95000;
	153	 1	 0.00	 0.00	 0.0	 0.0	 1	    1.09235	  -15.39512	 220.0	 4	    1.11000	    0.95000;
	154	 1	 0.00	 0.00	 0.0	 0.0	 1	    1.09242	  -15.38820	 220.0	 4	    1.11000	    0.95000;
	155	 2	 30.55	 -3.56	 0.0	 0.0	 1	    1.10813	  -10.97989	 220.0	 4	    1.11000	    0.95000;
	156	 2	 14.68	 -3.57	 0.0	 0.0	 1	    1.11000	   -8.92137	 220.0	 4	    1.11000	    0.95000;
	157	 1	 0.00	 0.00	 0.0	 0.0	 1	    1.10813	  -10.97989	 220.0	 4	    1.11000	    0.95000;
	158	 1	 0.00	 0.00	 0.0	 0.0	 1	    1.00746	   -9.59769	 400.0	 4	    1.05000	    0.95000;
	159	 2	 7.38	 -1.78	 0.0	 0.0	 1	    1.00740	   -9.59205	 400.0	 4	    1.05000	    0.95000;
	160	 1	 0.00	 0.00	 0.0	 0.0	 1	    1.09941	  -17.60702	 220.0	 4	    1.11000	    0.95000;
	161	 1	 0.00	 0.00	 0.0	 0.0	 1	    1.09941	  -17.60702	 220.0	 4	    1.11000	    0.95000;
	162	 1	 0.00	 0.00	 0.0	 0.0	 1	    1.02201	  -10.80876	 400.0	 4	    1.05000	    0.95000;
	163	 1	 0.00	 0.00	 0.0	 0.0	 1	    1.02432	   -9.91792	 400.0	 4	    1.05000	    0.95000;
	164	 1	 0.00	 0.00	 0.0	 0.0	 1	    1.02430	   -9.92170	 400.0	 4	    1.05000	    0.95000;
	165	 2	 4.29	 -8.96	 0.0	 0.0	 1	    1.10295	   -6.13687	 220.0	 4	    1.11000	    0.95000;
	166	 2	 23.36	 7.18	 0.0	 0.0	 1	    1.10301	   -6.12987	 220.0	 4	    1.11000	    0.95000;
	167	 1	 0.00	 0.00	 0.0	 0.0	 1	    1.10295	   -6.13687	 220.0	 4	    1.11000	    0.95000;
	168	 1	 0.00	 0.00	 0.0	 0.0	 1	    1.08713	  -18.44098	 220.0	 4	    1.11000	    0.95000;
	169	 1	 0.00	 0.00	 0.0	 0.0	 1	    1.10254	  -17.47100	 220.0	 4	    1.11000	    0.95000;
	170	 1	 0.00	 0.00	 0.0	 0.0	 1	    1.09461	  -15.62806	 220.0	 4	    1.11000	    0.95000;
	171	 1	 0.00	 0.00	 0.0	 0.0	 1	    1.09453	  -15.62330	 220.0	 4	    1.11000	    0.95000;
	172	 1	 0.00	 0.00	 0.0	 0.0	 1	    1.00659	  -16.12882	 400.0	 4	    1.05000	    0.95000;
	173	 1	 0.00	 0.00	 0.0	 0.0	 1	    1.00659	  -16.12882	 400.0	 4	    1.05000	    0.95000;
	174	 1	 0.00	 0.00	 0.0	 0.0	 1	    1.07309	  -14.86560	 220.0	 4	    1.11000	    0.95000;
	175	 1	 0.00	 0.00	 0.0	 0.0	 1	    1.07312	  -14.86689	 220.0	 4	    1.11000	    0.95000;
	176	 1	 0.00	 0.00	 0.0	 0.0	 1	    1.09354	  -16.05873	 220.0	 4	    1.11000	    0.95000;
	177	 1	 0.00	 0.00	 0.0	 0.0	 1	    1.09461	  -13.49268	 220.0	 4	    1.11000	    0.95000;
	178	 1	 0.00	 0.00	 0.0	 0.0	 1	    1.09462	  -13.48202	 220.0	 4	    1.11000	    0.95000;
	179	 1	 0.00	 0.00	 0.0	 0.0	 1	    1.09581	  -12.46412	 220.0	 4	    1.11000	    0.95000;
	180	 1	 0.00	 0.00	 0.0	 0.0	 1	    1.09581	  -12.46412	 220.0	 4	    1.11000	    0.95000;
	181	 1	 0.00	 0.00	 0.0	 0.0	 1	    1.07028	  -15.77477	 220.0	 4	    1.11000	    0.95000;
	182	 1	 0.00	 0.00	 0.0	 0.0	 1	    1.04890	  -12.29404	 220.0	 5	    1.11000	    0.95000;
	183	 1	 0.00	 0.00	 0.0	 0.0	 1	    1.10249	  -14.56696	 220.0	 5	    1.11000	    0.95000;
	184	 1	 0.00	 0.00	 0.0	 0.0	 1	    1.02634	  -13.04573	 400.0	 5	    1.05000	    0.95000;
	185	 1	 0.00	 0.00	 0.0	 0.0	 1	    1.02637	  -13.04950	 400.0	 5	    1.05000	    0.95000;
	186	 1	 0.00	 0.00	 0.0	 0.0	 1	    1.01591	  -11.04870	 400.0	 5	    1.05000	    0.95000;
	187	 1	 0.00	 0.00	 0.0	 0.0	 1	    1.01593	  -11.04995	 400.0	 5	    1.05000	    0.95000;
	188	 1	 0.00	 0.00	 0.0	 0.0	 1	    1.02141	  -14.43279	 220.0	 5	    1.11000	    0.95000;
	189	 1	 0.00	 0.00	 0.0	 0.0	 1	    1.02148	  -14.43642	 220.0	 5	    1.11000	    0.95000;
	190	 1	 0.00	 0.00	 0.0	 0.0	 1	    1.07700	  -12.91663	 220.0	 5	    1.11000	    0.95000;
	191	 1	 0.00	 0.00	 0.0	 0.0	 1	    1.07686	  -12.91859	 220.0	 5	    1.11000	    0.95000;
	192	 1	 0.00	 0.00	 0.0	 0.0	 1	    0.99507	  -10.39108	 400.0	 5	    1.05000	    0.95000;
	193	 1	 0.00	 0.00	 0.0	 0.0	 1	    1.05842	  -11.61913	 220.0	 5	    1.11000	    0.95000;
	194	 1	 0.00	 0.00	 0.0	 0.0	 1	    1.05850	  -11.61613	 220.0	 5	    1.11000	    0.95000;
	195	 1	 0.00	 0.00	 0.0	 0.0	 1	    1.00861	  -11.67852	 400.0	 5	    1.05000	    0.95000;
	196	 1	 0.00	 0.00	 0.0	 0.0	 1	    1.00857	  -11.68001	 400.0	 5	    1.05000	    0.95000;
	197	 1	 0.00	 0.00	 0.0	 0.0	 1	    1.06632	   -9.61754	 220.0	 5	    1.11000	    0.95000;
	198	 1	 0.00	 0.00	 0.0	 0.0	 1	    1.06637	   -9.60990	 220.0	 5	    1.11000	    0.95000;
	199	 1	 0.00	 0.00	 0.0	 0.0	 1	    1.02657	  -11.38783	 400.0	 5	    1.05000	    0.95000;
	200	 1	 0.00	 0.00	 0.0	 0.0	 1	    1.02656	  -11.38763	 400.0	 5	    1.05000	    0.95000;
	201	 1	 0.00	 0.00	 0.0	 0.0	 1	    1.06372	  -13.86647	 220.0	 5	    1.11000	    0.95000;
	202	 1	 0.00	 0.00	 0.0	 0.0	 1	    1.06371	  -13.86478	 220.0	 5	    1.11000	    0.95000;
	203	 1	 0.00	 0.00	 0.0	 0.0	 1	    1.06678	  -12.28043	 220.0	 5	    1.11000	    0.95000;
	204	 1	 0.00	 0.00	 0.0	 0.0	 1	    1.06674	  -12.29466	 220.0	 5	    1.11000	    0.95000;
	205	 2	 0.00	 0.00	 0.0	 0.0	 1	    1.01850	  -10.21216	 400.0	 5	    1.05000	    0.95000;
	206	 2	 0.00	 0.00	 0.0	 0.0	 1	    1.01847	  -10.20802	 400.0	 5	    1.05000	    0.95000;
	207	 1	 0.00	 0.00	 0.0	 0.0	 1	    1.07653	  -16.25857	 220.0	 5	    1.11000	    0.95000;
	208	 1	 0.00	 0.00	 0.0	 0.0	 1	    1.07653	  -16.25070	 220.0	 5	    1.11000	    0.95000;
	209	 1	 8.20	 1.50	 0.0	 0.0	 1	    1.09585	   -5.19341	 110.0	 1	    1.12000	    0.95000;
	210	 1	 8.20	 1.00	 0.0	 0.0	 1	    1.08208	  -12.50451	 110.0	 1	    1.12000	    0.95000;
	211	 1	 9.23	 2.00	 0.0	 0.0	 1	    1.10657	  -11.08559	 110.0	 1	    1.12000	    0.95000;
	212	 1	 9.02	 7.80	 0.0	 0.0	 1	    1.04669	  -13.72921	 110.0	 1	    1.12000	    0.95000;
	213	 1	 4.10	 1.00	 0.0	 0.0	 1	    1.07938	   -3.43336	 110.0	 1	    1.12000	    0.95000;
	214	 1	 9.74	 2.50	 0.0	 0.0	 1	    1.08763	   -4.80416	 110.0	 1	    1.12000	    0.95000;
	215	 2	 52.62	 24.30	 0.0	 0.0	 1	    1.12000	   -0.62519	 110.0	 1	    1.12000	    0.95000;
	216	 1	 22.55	 2.50	 0.0	 0.0	 1	    1.11738	   -1.47448	 110.0	 1	    1.12000	    0.95000;
	217	 1	 10.25	 2.00	 0.0	 0.0	 1	    1.11773	   -1.28714	 110.0	 1	    1.12000	    0.95000;
	218	 1	 11.28	 2.00	 0.0	 0.0	 1	    1.11852	   -1.16156	 110.0	 1	    1.12000	    0.95000;
	219	 2	 13.33	 2.50	 0.0	 0.0	 1	    1.10467	  -11.39218	 110.0	 1	    1.12000	    0.95000;
	220	 1	 9.23	 2.25	 0.0	 0.0	 1	    1.09854	  -11.51579	 110.0	 1	    1.12000	    0.95000;
	221	 2	 0.00	 0.00	 0.0	 0.0	 1	    1.11154	  -14.90228	 110.0	 1	    1.12000	    0.95000;
	222	 2	 11.28	 2.40	 0.0	 0.0	 1	    1.09175	  -10.33631	 110.0	 1	    1.12000	    0.95000;
	223	 2	 17.43	 3.10	 0.0	 0.0	 1	    1.10071	  -12.16760	 110.0	 1	    1.12000	    0.95000;
	224	 1	 1.54	 0.40	 0.0	 0.0	 1	    1.06795	   -5.31720	 110.0	 1	    1.12000	    0.95000;
	225	 1	 5.33	 0.80	 0.0	 0.0	 1	    1.10305	   -9.98077	 110.0	 1	    1.12000	    0.95000;
	226	 1	 5.64	 0.50	 0.0	 0.0	 1	    1.10353	   -7.86468	 110.0	 1	    1.12000	    0.95000;
	227	 1	 19.48	 2.00	 0.0	 0.0	 1	    1.10458	   -3.89305	 110.0	 1	    1.12000	    0.95000;
	228	 1	 11.28	 2.00	 0.0	 0.0	 1	    1.09635	  -11.93330	 110.0	 1	    1.12000	    0.95000;
	229	 2	 2.67	 1.03	 0.0	 0.0	 1	    1.11368	   -8.22862	 110.0	 1	    1.12000	    0.95000;
	230	 2	 2.67	 1.03	 0.0	 0.0	 1	    1.11386	   -8.24947	 110.0	 1	    1.12000	    0.95000;
	231	 1	 16.40	 6.00	 0.0	 0.0	 1	    1.09301	  -13.07483	 110.0	 1	    1.12000	    0.95000;
	232	 1	 10.25	 1.10	 0.0	 0.0	 1	    1.08933	   -4.63304	 110.0	 1	    1.12000	    0.95000;
	233	 1	 9.74	 1.50	 0.0	 0.0	 1	    1.07630	   -6.99067	 110.0	 1	    1.12000	    0.95000;
	234	 1	 22.55	 17.00	 0.0	 0.0	 1	    1.07657	   -3.65083	 110.0	 1	    1.12000	    0.95000;
	235	 1	 8.71	 0.60	 0.0	 0.0	 1	    1.09428	  -10.28956	 110.0	 1	    1.12000	    0.95000;
	236	 1	 13.74	 4.41	 0.0	 0.0	 1	    1.11822	   -8.46845	 110.0	 1	    1.12000	    0.95000;
	237	 1	 7.79	 0.80	 0.0	 0.0	 1	    1.09426	  -10.31715	 110.0	 1	    1.12000	    0.95000;
	238	 1	 10.25	 1.50	 0.0	 0.0	 1	    1.09108	   -6.00785	 110.0	 1	    1.12000	    0.95000;
	239	 2	 4.55	 1.18	 0.0	 0.0	 1	    1.09820	   -9.60341	 110.0	 1	    1.12000	    0.95000;
	240	 1	 14.04	 0.60	 0.0	 0.0	 1	    1.09007	  -14.09400	 110.0	 1	    1.12000	    0.95000;
	241	 1	 7.69	 2.19	 0.0	 0.0	 1	    1.11379	   -8.38620	 110.0	 1	    1.12000	    0.95000;
	242	 1	 10.76	 0.40	 0.0	 0.0	 1	    1.11640	   -5.21682	 110.0	 1	    1.12000	    0.95000;
	243	 1	 0.00	 0.00	 0.0	 0.0	 1	    1.11651	   -5.19726	 110.0	 1	    1.12000	    0.95000;
	244	 1	 3.08	 1.40	 0.0	 0.0	 1	    1.11766	   -2.10456	 110.0	 1	    1.12000	    0.95000;
	245	 1	 0.00	 0.00	 0.0	 0.0	 1	    1.08469	   -2.18892	 110.0	 1	    1.12000	    0.95000;
	246	 2	 2.01	 5.00	 0.0	 0.0	 1	    1.08454	    0.46282	 22.0	 1	    1.12000	    0.95000;
	247	 1	 11.28	 1.50	 0.0	 0.0	 1	    1.09412	   -9.32116	 110.0	 1	    1.12000	    0.95000;
	248	 1	 3.08	 0.50	 0.0	 0.0	 1	    1.11208	   -9.84942	 110.0	 1	    1.12000	    0.95000;
	249	 1	 3.08	 0.50	 0.0	 0.0	 1	    1.10585	   -8.03957	 110.0	 1	    1.12000	    0.95000;
	250	 1	 4.10	 0.50	 0.0	 0.0	 1	    1.05474	  -14.70835	 110.0	 1	    1.12000	    0.95000;
	251	 1	 4.92	 0.30	 0.0	 0.0	 1	    1.10117	   -9.70925	 110.0	 1	    1.12000	    0.95000;
	252	 1	 19.48	 7.00	 0.0	 0.0	 1	    1.09902	   -4.59284	 110.0	 1	    1.12000	    0.95000;
	253	 1	 22.55	 4.00	 0.0	 0.0	 1	    1.09242	  -12.95372	 110.0	 1	    1.12000	    0.95000;
	254	 1	 16.40	 2.00	 0.0	 0.0	 1	    1.09057	  -13.33237	 110.0	 1	    1.12000	    0.95000;
	255	 1	 24.60	 1.50	 0.0	 0.0	 1	    1.10083	   -7.30124	 110.0	 1	    1.12000	    0.95000;
	256	 1	 5.64	 1.00	 0.0	 0.0	 1	    1.10208	   -7.49428	 110.0	 1	    1.12000	    0.95000;
	257	 1	 4.36	 0.60	 0.0	 0.0	 1	    1.08069	   -4.08182	 110.0	 1	    1.12000	    0.95000;
	258	 1	 4.36	 0.60	 0.0	 0.0	 1	    1.08068	   -4.09936	 110.0	 1	    1.12000	    0.95000;
	259	 1	 11.38	 3.24	 0.0	 0.0	 1	    1.10262	   -9.21074	 110.0	 1	    1.12000	    0.95000;
	260	 1	 7.18	 1.00	 0.0	 0.0	 1	    1.05139	  -15.31326	 110.0	 1	    1.12000	    0.95000;
	261	 1	 2.67	 1.20	 0.0	 0.0	 1	    1.10869	  -11.33698	 110.0	 1	    1.12000	    0.95000;
	262	 1	 11.48	 1.80	 0.0	 0.0	 1	    1.09444	  -11.21387	 110.0	 1	    1.12000	    0.95000;
	263	 1	 2.36	 1.10	 0.0	 0.0	 1	    1.09244	  -11.45848	 110.0	 1	    1.12000	    0.95000;
	264	 1	 41.00	 34.00	 0.0	 0.0	 1	    1.08439	   -2.60577	 110.0	 1	    1.12000	    0.95000;
	265	 1	 38.95	 33.00	 0.0	 0.0	 1	    1.08559	   -4.25127	 110.0	 1	    1.12000	    0.95000;
	266	 1	 6.15	 1.00	 0.0	 0.0	 1	    1.09798	  -12.93377	 110.0	 1	    1.12000	    0.95000;
	267	 1	 13.84	 0.70	 0.0	 0.0	 1	    1.09183	   -7.50759	 110.0	 1	    1.12000	    0.95000;
	268	 1	 10.05	 1.80	 0.0	 0.0	 1	    1.10231	   -8.96940	 110.0	 1	    1.12000	    0.95000;
	269	 1	 13.33	 1.50	 0.0	 0.0	 1	    1.10516	   -3.54223	 110.0	 1	    1.12000	    0.95000;
	270	 1	 10.25	 1.50	 0.0	 0.0	 1	    1.05772	  -14.11118	 110.0	 1	    1.12000	    0.95000;
	271	 1	 18.45	 4.50	 0.0	 0.0	 1	    1.10157	  -11.59602	 110.0	 1	    1.12000	    0.95000;
	272	 1	 0.31	 0.10	 0.0	 0.0	 1	    1.09858	  -11.92265	 110.0	 1	    1.12000	    0.95000;
	273	 1	 0.51	 0.15	 0.0	 0.0	 1	    1.11056	  -10.85840	 110.0	 1	    1.12000	    0.95000;
	274	 1	 0.20	 0.06	 0.0	 0.0	 1	    1.11297	  -10.18590	 110.0	 1	    1.12000	    0.95000;
	275	 1	 13.04	 5.80	 0.0	 0.0	 1	    1.11493	   -5.71463	 110.0	 1	    1.12000	    0.95000;
	276	 1	 8.69	 3.87	 0.0	 0.0	 1	    1.11767	   -7.78847	 110.0	 1	    1.12000	    0.95000;
	277	 1	 9.74	 1.20	 0.0	 0.0	 1	    1.09516	   -9.81468	 110.0	 1	    1.12000	    0.95000;
	278	 1	 3.08	 0.50	 0.0	 0.0	 1	    1.11285	   -2.46344	 110.0	 1	    1.12000	    0.95000;
	279	 1	 8.10	 0.00	 0.0	 0.0	 1	    1.10428	   -4.52566	 110.0	 1	    1.12000	    0.95000;
	280	 1	 15.38	 2.00	 0.0	 0.0	 1	    1.11290	  -10.10770	 110.0	 1	    1.12000	    0.95000;
	281	 1	 9.74	 2.00	 0.0	 0.0	 1	    1.09635	  -10.04789	 110.0	 1	    1.12000	    0.95000;
	282	 1	 17.43	 14.00	 0.0	 0.0	 1	    1.07797	   -4.19803	 110.0	 1	    1.12000	    0.95000;
	283	 1	 16.40	 13.00	 0.0	 0.0	 1	    1.07781	   -4.18973	 110.0	 1	    1.12000	    0.95000;
	284	 1	 13.94	 4.47	 0.0	 0.0	 1	    1.11001	   -5.90344	 110.0	 1	    1.12000	    0.95000;
	285	 1	 15.38	 4.00	 0.0	 0.0	 1	    1.10618	   -6.76051	 110.0	 1	    1.12000	    0.95000;
	286	 1	 10.25	 1.00	 0.0	 0.0	 1	    1.10216	   -7.46776	 110.0	 1	    1.12000	    0.95000;
	287	 1	 5.06	 0.00	 0.0	 0.0	 1	    1.11104	   -3.49092	 110.0	 1	    1.12000	    0.95000;
	288	 1	 3.07	 2.50	 0.0	 0.0	 1	    1.09690	  -10.06475	 110.0	 1	    1.12000	    0.95000;
	289	 1	 4.10	 0.50	 0.0	 0.0	 1	    1.09786	   -8.73185	 110.0	 1	    1.12000	    0.95000;
	290	 1	 22.04	 6.70	 0.0	 0.0	 1	    1.09763	   -9.92040	 110.0	 1	    1.12000	    0.95000;
	291	 2	 16.20	 1.60	 0.0	 0.0	 1	    1.10922	  -11.57853	 110.0	 1	    1.12000	    0.95000;
	292	 1	 8.30	 2.37	 0.0	 0.0	 1	    1.10794	   -5.91521	 110.0	 1	    1.12000	    0.95000;
	293	 1	 5.43	 1.00	 0.0	 0.0	 1	    1.10913	   -5.38307	 110.0	 1	    1.12000	    0.95000;
	294	 2	 7.59	 0.30	 0.0	 0.0	 1	    1.09263	   -9.15817	 110.0	 1	    1.12000	    0.95000;
	295	 1	 13.33	 0.40	 0.0	 0.0	 1	    1.09774	   -9.17365	 110.0	 1	    1.12000	    0.95000;
	296	 1	 6.66	 1.50	 0.0	 0.0	 1	    1.10572	   -8.51602	 110.0	 1	    1.12000	    0.95000;
	297	 1	 10.46	 3.36	 0.0	 0.0	 1	    1.11246	   -8.81237	 110.0	 1	    1.12000	    0.95000;
	298	 1	 15.07	 4.70	 0.0	 0.0	 1	    1.11227	   -8.34166	 110.0	 1	    1.12000	    0.95000;
	299	 2	 15.38	 4.00	 0.0	 0.0	 1	    1.09417	   -3.88490	 110.0	 1	    1.12000	    0.95000;
	300	 1	 0.00	 0.00	 0.0	 0.0	 1	    1.11794	   -7.79263	 110.0	 1	    1.12000	    0.95000;
	301	 1	 5.64	 1.20	 0.0	 0.0	 1	    1.06231	   -6.30783	 110.0	 1	    1.12000	    0.95000;
	302	 1	 10.97	 3.52	 0.0	 0.0	 1	    1.10803	   -5.90419	 110.0	 1	    1.12000	    0.95000;
	303	 1	 13.22	 3.77	 0.0	 0.0	 1	    1.11367	   -8.37358	 110.0	 1	    1.12000	    0.95000;
	304	 1	 26.04	 7.42	 0.0	 0.0	 1	    1.11386	   -5.46245	 110.0	 1	    1.12000	    0.95000;
	305	 1	 26.04	 7.42	 0.0	 0.0	 1	    1.11259	   -8.84404	 110.0	 1	    1.12000	    0.95000;
	306	 2	 98.48	 54.72	 0.0	 0.0	 1	    1.11451	   -9.41899	 110.0	 1	    1.12000	    0.95000;
	307	 2	 62.99	 22.54	 0.0	 0.0	 1	    1.11437	   -8.72809	 110.0	 1	    1.12000	    0.95000;
	308	 2	 36.36	 13.20	 0.0	 0.0	 1	    1.11610	   -8.41965	 110.0	 1	    1.12000	    0.95000;
	309	 1	 0.00	 0.00	 0.0	 0.0	 1	    1.11251	   -8.82401	 110.0	 1	    1.12000	    0.95000;
	310	 2	 39.94	 17.47	 0.0	 0.0	 1	    1.11813	   -5.18532	 110.0	 1	    1.12000	    0.95000;
	311	 2	 31.23	 15.45	 0.0	 0.0	 1	    1.12000	   -8.42341	 110.0	 1	    1.12000	    0.95000;
	312	 1	 15.68	 0.80	 0.0	 0.0	 1	    1.10357	   -9.22625	 110.0	 1	    1.12000	    0.95000;
	313	 1	 2.56	 0.50	 0.0	 0.0	 1	    1.11139	   -2.82681	 110.0	 1	    1.12000	    0.95000;
	314	 1	 3.08	 1.00	 0.0	 0.0	 1	    1.09520	  -10.60092	 110.0	 1	    1.12000	    0.95000;
	315	 1	 8.71	 2.10	 0.0	 0.0	 1	    1.09430	  -10.22324	 110.0	 1	    1.12000	    0.95000;
	316	 1	 11.79	 2.60	 0.0	 0.0	 1	    1.09435	  -10.23985	 110.0	 1	    1.12000	    0.95000;