%%%%%%%%%%%%%%%%%%%%%%%%%%%%%%%%%%%%%%%%%%%%%%%%%%%%%%%%%%%%%%%%%%%%%%%%%%%
%%%%                                                                  %%%%%
%%%%    IEEE PES Power Grid Library - Optimal Power Flow - v17.07     %%%%%
%%%%          (https://github.com/power-grid-lib/pglib-opf)           %%%%%
%%%%             Benchmark Group - Active Power Increase              %%%%%
%%%%                         27 - June - 2017                         %%%%%
%%%%                                                                  %%%%%
%%%%%%%%%%%%%%%%%%%%%%%%%%%%%%%%%%%%%%%%%%%%%%%%%%%%%%%%%%%%%%%%%%%%%%%%%%%
function mpc = pglib_opf_case2848_rte__api
mpc.version = '2';
mpc.baseMVA = 100.0;

%% bus data
%	bus_i	type	Pd	Qd	Gs	Bs	area	Vm	Va	baseKV	zone	Vmax	Vmin
mpc.bus = [
	1	 1	 20.60	 0.00	 0.0	 0.0	 1	    1.05403	   -0.48821	 63.0	 1	    1.06349	    0.93651;
	2	 1	 28.39	 17.20	 0.0	 0.0	 1	    1.02580	  -15.11493	 225.0	 1	    1.08889	    0.88889;
	3	 1	 0.00	 0.00	 0.0	 0.0	 1	    1.08482	   -0.65534	 380.0	 1	    1.10263	    1.00000;
	4	 1	 0.00	 0.00	 0.0	 0.0	 1	    1.04171	   -5.82309	 63.0	 1	    1.07937	    0.92063;
	5	 1	 0.54	 0.10	 0.0	 0.0	 1	    0.94906	   -5.27238	 45.0	 1	    1.00000	    0.88889;
	6	 1	 -2.30	 -20.60	 0.0	 0.0	 1	    0.95015	   -5.28555	 45.0	 1	    1.00000	    0.88889;
	7	 1	 110.50	 -25.50	 0.0	 0.0	 1	    1.08267	   -9.66043	 225.0	 1	    1.08444	    1.00000;
	8	 1	 60.72	 1.50	 0.0	 0.0	 1	    1.04276	   -6.36709	 63.0	 1	    1.06349	    0.96825;
	9	 1	 0.00	 0.00	 0.0	 -21.0	 1	    1.05176	   -1.44123	 20.0	 1	    1.20000	    0.80000;
	2966	 1	 0.00	 0.00	 0.0	 -64.0	 1	    1.01326	   -5.81373	 20.0	 1	    1.20000	    0.80000;
	10	 1	 0.00	 0.00	 0.0	 0.0	 1	    1.06288	   -5.02793	 150.0	 1	    1.10667	    0.90000;
	11	 1	 31.70	 -8.70	 0.0	 0.0	 1	    1.06552	   -4.73962	 225.0	 1	    1.08889	    0.93333;
	2571	 1	 59.36	 9.90	 0.0	 0.0	 1	    1.06154	   -4.94551	 225.0	 1	    1.08889	    0.93333;
	12	 1	 0.00	 0.00	 0.0	 0.0	 1	    1.07287	   -1.48314	 380.0	 1	    1.10526	    1.00000;
	13	 1	 0.00	 0.00	 0.0	 0.0	 1	    1.04301	  -13.71600	 225.0	 1	    1.09067	    1.00000;
	14	 1	 -4.10	 3.70	 0.0	 0.0	 1	    1.02201	   -7.80183	 63.0	 1	    1.06349	    0.93651;
	15	 1	 9.00	 -3.30	 0.0	 0.0	 1	    1.04273	   -7.93190	 63.0	 1	    1.06349	    0.93651;
	16	 1	 163.01	 6.30	 0.0	 0.0	 1	    1.06352	   -8.93057	 225.0	 1	    1.08889	    0.93333;
	17	 1	 47.55	 6.90	 0.0	 0.0	 1	    1.01141	  -15.88640	 225.0	 1	    1.08889	    1.00000;
	18	 1	 61.13	 13.40	 0.0	 0.0	 1	    1.01079	  -14.15019	 225.0	 1	    1.08962	    1.00000;
	19	 2	 0.00	 0.00	 0.0	 0.0	 1	    1.03864	   -5.51799	 63.0	 1	    1.08661	    0.92063;
	20	 1	 105.01	 29.10	 0.0	 0.0	 1	    1.01136	  -15.89883	 225.0	 1	    1.08889	    1.00000;
	21	 1	 65.75	 4.00	 0.0	 0.0	 1	    1.02861	  -12.44071	 225.0	 1	    1.08889	    0.88889;
	22	 1	 4.60	 -11.40	 0.0	 0.0	 1	    1.07137	   -9.35023	 63.0	 1	    1.07249	    0.93651;
	23	 1	 33.30	 -5.70	 0.0	 0.0	 1	    1.03064	   -7.68893	 63.0	 1	    1.06349	    0.93651;
	24	 1	 0.00	 0.00	 0.0	 0.0	 1	    1.03702	   -8.54384	 225.0	 1	    1.08889	    1.00000;
	2573	 1	 0.00	 0.00	 0.0	 0.0	 1	    1.03722	   -8.47449	 225.0	 1	    1.08889	    1.00000;
	25	 1	 24.45	 5.60	 0.0	 0.0	 1	    1.03010	  -12.32666	 225.0	 1	    1.08889	    0.88889;
	26	 1	 1.00	 -8.00	 0.0	 0.0	 1	    1.08817	   -6.59369	 225.0	 1	    1.09649	    0.98667;
	27	 1	 22.00	 -5.60	 0.0	 0.0	 1	    1.06150	   -7.52059	 63.0	 1	    1.06349	    0.93651;
	28	 1	 -2.10	 -0.10	 0.0	 0.0	 1	    1.00200	  -11.41820	 225.0	 1	    1.08889	    1.00000;
	2574	 1	 53.12	 10.00	 0.0	 0.0	 1	    1.00195	  -11.42290	 225.0	 1	    1.08889	    1.00000;
	29	 1	 7.10	 -2.60	 0.0	 0.0	 1	    1.02863	   -8.45822	 63.0	 1	    1.06349	    0.93651;
	30	 1	 3.50	 -40.00	 0.0	 0.0	 1	    1.01444	  -12.59705	 225.0	 1	    1.08889	    1.00000;
	31	 1	 7.70	 -1.80	 0.0	 0.0	 1	    1.02090	    0.67405	 63.0	 1	    1.07211	    0.93651;
	32	 1	 16.44	 2.10	 0.0	 0.0	 1	    0.98740	  -10.28709	 63.0	 1	    1.06349	    0.93651;
	33	 1	 2.40	 -0.40	 0.0	 0.0	 1	    0.94931	   -5.68755	 45.0	 1	    1.00000	    0.88889;
	34	 1	 -0.00	 0.00	 0.0	 0.0	 1	    0.94914	   -5.26619	 45.0	 1	    1.00000	    0.88889;
	35	 1	 35.32	 0.10	 0.0	 0.0	 1	    1.03649	   -9.23798	 63.0	 1	    1.06349	    0.96825;
	36	 1	 0.70	 -4.10	 0.0	 0.0	 1	    0.99543	   -8.04216	 45.0	 1	    1.00000	    0.88889;
	37	 1	 9.30	 -5.30	 0.0	 0.0	 1	    1.06229	    2.80868	 63.0	 1	    1.06349	    0.93651;
	39	 1	 78.40	 -4.80	 0.0	 0.0	 1	    1.08082	   -9.06334	 225.0	 1	    1.08934	    0.98667;
	40	 1	 25.10	 -3.30	 0.0	 0.0	 1	    1.04415	  -14.12219	 225.0	 1	    1.08889	    0.88889;
	41	 1	 109.22	 7.40	 0.0	 0.0	 1	    1.08399	  -14.64430	 225.0	 1	    1.08444	    1.00000;
	42	 1	 51.35	 2.90	 0.0	 0.0	 1	    1.04076	   -2.48017	 63.0	 1	    1.06370	    0.93651;
	43	 1	 0.00	 0.00	 0.0	 0.0	 1	    1.05259	   -1.65595	 225.0	 1	    1.08889	    0.93333;
	44	 1	 29.00	 -10.00	 0.0	 0.0	 1	    1.04158	   -8.73631	 63.0	 1	    1.06349	    0.96825;
	45	 1	 97.40	 -3.00	 0.0	 0.0	 1	    1.04186	  -11.06810	 225.0	 1	    1.08889	    1.00000;
	46	 1	 0.00	 0.00	 0.0	 0.0	 1	    1.08492	   -0.61659	 380.0	 1	    1.10526	    1.00000;
	2575	 1	 0.00	 0.00	 0.0	 0.0	 1	    1.08482	   -0.64908	 380.0	 1	    1.10526	    1.00000;
	47	 1	 21.30	 -2.60	 0.0	 0.0	 1	    1.04572	   -4.60527	 63.0	 1	    1.06606	    0.93651;
	48	 1	 -0.30	 0.80	 0.0	 0.0	 1	    1.02589	    0.14633	 63.0	 1	    1.06735	    0.93651;
	49	 1	 15.76	 3.20	 0.0	 0.0	 1	    1.05905	    1.72260	 63.0	 1	    1.06349	    0.96825;
	2576	 1	 12.63	 4.70	 0.0	 0.0	 1	    1.04810	   -0.38532	 63.0	 1	    1.06349	    0.96825;
	50	 1	 0.00	 0.00	 0.0	 0.0	 1	    1.08362	   -2.09766	 225.0	 1	    1.08444	    1.00000;
	51	 1	 66.60	 0.00	 0.0	 0.0	 1	    1.07952	   -5.63430	 225.0	 1	    1.08444	    1.00000;
	52	 1	 0.00	 0.00	 0.0	 0.0	 1	    1.01197	  -15.70411	 225.0	 1	    1.08889	    1.00000;
	2942	 1	 73.22	 11.20	 0.0	 0.0	 1	    1.01081	  -17.01325	 225.0	 1	    1.08889	    1.00000;
	53	 2	 7.90	 -4.70	 0.0	 0.0	 1	    1.03837	    4.32975	 63.0	 1	    1.06349	    0.96825;
	54	 1	 0.00	 0.00	 0.0	 0.0	 1	    1.06933	    0.65494	 150.0	 1	    1.08000	    0.96667;
	55	 1	 55.02	 8.50	 0.0	 0.0	 1	    1.06267	  -31.43709	 225.0	 1	    1.09459	    1.00000;
	56	 1	 0.00	 0.00	 0.0	 0.0	 1	    1.07584	  -28.42626	 380.0	 1	    1.10526	    1.00000;
	57	 1	 80.20	 -7.70	 0.0	 0.0	 1	    1.06477	  -10.95704	 225.0	 1	    1.08889	    0.98667;
	58	 1	 0.00	 0.00	 0.0	 -64.0	 1	    1.02586	  -12.56481	 20.0	 1	    1.20000	    0.80000;
	59	 1	 35.30	 -9.20	 0.0	 0.0	 1	    1.03001	  -12.15715	 225.0	 1	    1.08889	    0.96889;
	60	 1	 80.01	 2.60	 0.0	 0.0	 1	    1.03370	  -10.24410	 380.0	 1	    1.10526	    1.00000;
	61	 1	 7.47	 1.70	 0.0	 0.0	 1	    1.03754	   -2.72288	 63.0	 1	    1.06349	    0.93651;
	62	 1	 0.82	 0.70	 0.0	 0.0	 1	    1.03449	   -4.11378	 63.0	 1	    1.06349	    0.96825;
	63	 1	 38.85	 4.10	 0.0	 0.0	 1	    1.03472	   -4.10893	 63.0	 1	    1.06349	    0.96825;
	2577	 1	 0.00	 0.00	 0.0	 0.0	 1	    1.03474	   -5.40323	 63.0	 1	    1.06349	    0.96825;
	64	 1	 53.79	 9.40	 0.0	 0.0	 1	    1.05067	   -7.30300	 225.0	 1	    1.08889	    0.93333;
	65	 1	 0.00	 0.00	 0.0	 0.0	 1	    1.03473	   -5.40385	 63.0	 1	    1.06349	    0.96825;
	66	 1	 12.50	 -6.50	 0.0	 0.0	 1	    0.94505	    1.48375	 45.0	 1	    1.00000	    0.88889;
	2578	 2	 0.00	 0.00	 0.0	 0.0	 1	    0.99998	   -5.17801	 45.0	 1	    1.00000	    0.88889;
	67	 1	 0.54	 3.20	 0.0	 0.0	 1	    1.04680	  -14.02936	 225.0	 1	    1.08889	    0.88889;
	2579	 1	 57.73	 7.20	 0.0	 0.0	 1	    1.04630	  -14.15217	 225.0	 1	    1.08889	    0.88889;
	68	 1	 4.20	 -2.20	 0.0	 0.0	 1	    1.04513	  -22.83175	 20.0	 1	    1.20000	    0.80000;
	69	 1	 189.23	 4.70	 0.0	 0.0	 1	    1.04511	  -22.82981	 225.0	 1	    1.08685	    1.00000;
	70	 1	 83.70	 -8.30	 0.0	 0.0	 1	    1.01639	  -13.58186	 225.0	 1	    1.08889	    1.00000;
	71	 2	 0.00	 0.00	 0.0	 0.0	 1	    1.09298	  -16.78619	 150.0	 1	    1.10885	    0.90000;
	72	 1	 0.00	 0.00	 0.0	 0.0	 1	    1.03696	  -14.40450	 225.0	 1	    1.08889	    1.00000;
	2580	 1	 0.00	 0.00	 0.0	 0.0	 1	    1.03696	  -14.40450	 225.0	 1	    1.08889	    1.00000;
	74	 1	 0.00	 0.00	 0.0	 -80.0	 1	    1.03696	  -14.40449	 225.0	 1	    1.08889	    1.00000;
	75	 1	 20.65	 5.40	 0.0	 0.0	 1	    1.04593	   -3.90186	 63.0	 1	    1.06349	    0.93651;
	76	 2	 0.00	 0.00	 0.0	 0.0	 1	    0.96392	   -5.28569	 45.0	 1	    1.00000	    0.88889;
	77	 1	 5.70	 -1.30	 0.0	 0.0	 1	    1.03749	   -5.67091	 63.0	 1	    1.08481	    0.92063;
	78	 1	 10.60	 5.80	 0.0	 0.0	 1	    1.04064	  -11.48497	 225.0	 1	    1.08889	    1.00000;
	79	 1	 14.00	 -4.60	 0.0	 0.0	 1	    1.05763	  -22.24840	 63.0	 1	    1.07937	    0.92063;
	80	 1	 7.10	 -2.30	 0.0	 0.0	 1	    1.06915	   -4.94199	 63.0	 1	    1.08744	    0.92063;
	81	 1	 0.00	 0.00	 0.0	 0.0	 1	    1.06657	  -13.42987	 225.0	 1	    1.08889	    1.00000;
	82	 1	 80.96	 24.00	 0.0	 0.0	 1	    1.04173	  -13.64348	 225.0	 1	    1.08889	    0.88889;
	83	 1	 27.80	 -7.50	 0.0	 0.0	 1	    1.04313	  -14.34707	 63.0	 1	    1.06349	    0.96740;
	84	 1	 61.10	 -4.50	 0.0	 0.0	 1	    1.02751	  -14.81151	 225.0	 1	    1.08889	    0.96889;
	85	 1	 0.00	 0.00	 0.0	 0.0	 1	    1.02677	  -12.98831	 380.0	 1	    1.10526	    1.00000;
	86	 1	 43.20	 1.00	 0.0	 0.0	 1	    1.04548	  -12.28325	 63.0	 1	    1.06349	    0.96825;
	87	 1	 22.80	 -0.90	 0.0	 0.0	 1	    1.00724	    3.46600	 63.0	 1	    1.06349	    0.96825;
	88	 1	 2.85	 0.80	 0.0	 0.0	 1	    1.04139	   -5.38249	 63.0	 1	    1.06349	    0.96825;
	89	 1	 41.43	 6.30	 0.0	 0.0	 1	    1.03004	   -4.88224	 63.0	 1	    1.06349	    0.96825;
	2581	 1	 43.47	 12.10	 0.0	 0.0	 1	    1.03003	   -4.79087	 63.0	 1	    1.06349	    0.96825;
	90	 1	 0.00	 0.00	 0.0	 0.0	 1	    1.07591	   -4.68961	 225.0	 1	    1.08444	    1.00000;
	2582	 1	 0.00	 0.00	 0.0	 0.0	 1	    1.07603	   -4.68859	 225.0	 1	    1.08444	    1.00000;
	91	 1	 89.30	 -15.70	 0.0	 0.0	 1	    1.03248	  -17.78738	 225.0	 1	    1.08889	    1.00000;
	92	 1	 6.40	 -11.60	 0.0	 0.0	 1	    1.07378	   -5.38657	 225.0	 1	    1.09041	    0.93333;
	93	 2	 0.00	 0.00	 0.0	 0.0	 1	    1.09282	  -16.80928	 150.0	 1	    1.10907	    0.90000;
	94	 1	 51.21	 57.20	 0.0	 0.0	 1	    1.08092	   -2.89544	 225.0	 1	    1.08444	    1.00000;
	2583	 1	 33.40	 -0.50	 0.0	 0.0	 1	    1.08187	   -2.88970	 225.0	 1	    1.08444	    1.00000;
	95	 1	 0.00	 0.00	 0.0	 0.0	 1	    1.07978	   -3.99419	 225.0	 1	    1.08889	    0.97778;
	96	 1	 12.23	 0.80	 0.0	 0.0	 1	    1.04886	  -10.03287	 225.0	 1	    1.08889	    0.88889;
	97	 1	 48.63	 4.50	 0.0	 0.0	 1	    1.03320	  -10.25758	 63.0	 1	    1.06349	    0.96825;
	98	 1	 16.50	 -8.70	 0.0	 0.0	 1	    1.06734	   -3.01291	 225.0	 1	    1.08889	    0.93333;
	99	 1	 38.85	 5.00	 0.0	 0.0	 1	    1.04280	  -13.79102	 225.0	 1	    1.08889	    1.00000;
	2584	 1	 19.70	 3.60	 0.0	 0.0	 1	    1.00995	  -14.37595	 225.0	 1	    1.08889	    1.00000;
	100	 1	 7.30	 -5.10	 0.0	 0.0	 1	    1.06921	  -13.78539	 225.0	 1	    1.08889	    1.00000;
	101	 1	 8.69	 2.50	 0.0	 0.0	 1	    1.06619	   -7.74113	 225.0	 1	    1.08889	    0.98667;
	102	 1	 0.00	 0.00	 0.0	 0.0	 1	    1.04916	  -12.94117	 225.0	 1	    1.08889	    0.88889;
	2585	 1	 0.00	 0.00	 0.0	 0.0	 1	    1.04623	  -13.59656	 225.0	 1	    1.08889	    0.88889;
	103	 1	 0.00	 0.00	 0.0	 0.0	 1	    1.05291	  -11.66658	 380.0	 1	    1.10526	    1.00000;
	104	 1	 61.94	 7.00	 0.0	 0.0	 1	    1.00271	  -11.98578	 225.0	 1	    1.08889	    1.00000;
	2586	 1	 25.95	 5.80	 0.0	 -80.0	 1	    1.01678	  -14.55672	 225.0	 1	    1.08889	    1.00000;
	105	 1	 10.10	 -0.90	 0.0	 0.0	 1	    1.03844	   -9.25152	 63.0	 1	    1.07937	    0.92063;
	106	 1	 0.00	 0.00	 0.0	 0.0	 1	    1.08421	   -2.27955	 225.0	 1	    1.08889	    0.97778;
	2587	 1	 0.00	 0.00	 0.0	 0.0	 1	    1.08425	   -2.21711	 225.0	 1	    1.08889	    0.97778;
	107	 1	 11.41	 3.50	 0.0	 0.0	 1	    1.05256	   -2.47421	 63.0	 1	    1.06349	    0.96825;
	108	 1	 39.70	 -6.40	 0.0	 0.0	 1	    1.08259	   -2.58365	 225.0	 1	    1.08444	    1.00000;
	109	 1	 0.00	 0.00	 0.0	 0.0	 1	    1.07696	  -12.01938	 225.0	 1	    1.08444	    1.00000;
	110	 1	 0.00	 0.00	 0.0	 0.0	 1	    1.08441	   -5.90590	 380.0	 1	    1.10263	    1.00000;
	111	 1	 62.20	 -16.10	 0.0	 0.0	 1	    1.07673	  -12.08017	 225.0	 1	    1.08444	    1.00000;
	112	 1	 2.20	 -1.00	 0.0	 0.0	 1	    1.01175	  -13.99038	 225.0	 1	    1.09035	    1.00000;
	2588	 1	 12.30	 -2.00	 0.0	 0.0	 1	    1.01172	  -13.99767	 225.0	 1	    1.09035	    1.00000;
	113	 1	 5.00	 -3.80	 0.0	 0.0	 1	    1.08364	   -8.13377	 225.0	 1	    1.08889	    0.88889;
	114	 1	 30.00	 0.00	 0.0	 0.0	 1	    1.03323	   -3.50522	 63.0	 1	    1.06349	    0.93651;
	115	 1	 15.89	 1.80	 0.0	 0.0	 1	    1.03488	  -13.34838	 225.0	 1	    1.08889	    0.88889;
	116	 1	 70.50	 15.90	 0.0	 0.0	 1	    1.03350	  -15.37478	 225.0	 1	    1.08889	    0.88889;
	117	 1	 3.53	 0.20	 0.0	 0.0	 1	    1.03830	   -2.25152	 63.0	 1	    1.06349	    0.96825;
	118	 1	 51.62	 3.10	 0.0	 0.0	 1	    1.03904	  -24.85114	 63.0	 1	    1.07937	    0.92063;
	119	 1	 24.00	 -7.30	 0.0	 0.0	 1	    1.04728	  -13.07999	 63.0	 1	    1.06349	    0.96825;
	120	 2	 0.00	 0.00	 0.0	 0.0	 1	    1.06861	    5.19794	 63.0	 1	    1.06863	    0.93651;
	121	 1	 10.87	 2.50	 0.0	 0.0	 1	    1.05779	  -15.02682	 63.0	 1	    1.06349	    0.96825;
	2589	 1	 13.45	 3.50	 0.0	 0.0	 1	    1.05827	  -15.03430	 63.0	 1	    1.06349	    0.96825;
	122	 1	 77.10	 -3.90	 0.0	 0.0	 1	    1.07827	  -17.02427	 225.0	 1	    1.08889	    1.00000;
	123	 1	 28.80	 4.40	 0.0	 0.0	 1	    1.04869	   -6.52174	 63.0	 1	    1.07937	    0.92063;
	124	 2	 -0.00	 -4.60	 0.0	 0.0	 1	    1.03750	   -5.67122	 63.0	 1	    1.08203	    0.92063;
	125	 1	 0.00	 0.00	 0.0	 0.0	 1	    1.07937	  -16.71403	 63.0	 1	    1.07937	    0.92063;
	126	 1	 0.00	 0.00	 0.0	 0.0	 1	    1.04865	  -12.48671	 225.0	 1	    1.08889	    1.00000;
	127	 1	 0.00	 0.00	 0.0	 0.0	 1	    1.08748	  -12.52588	 380.0	 1	    1.10526	    1.00000;
	128	 1	 23.23	 1.50	 0.0	 0.0	 1	    1.05386	   -0.61784	 63.0	 1	    1.06349	    0.93651;
	129	 2	 24.72	 12.20	 0.0	 0.0	 1	    1.03126	   -6.16881	 63.0	 1	    1.06349	    0.93651;
	130	 1	 -13.20	 16.10	 0.0	 0.0	 1	    1.06067	   -7.92985	 63.0	 1	    1.07937	    0.92063;
	131	 1	 0.00	 0.00	 0.0	 0.0	 1	    1.07398	   -8.90031	 225.0	 1	    1.08889	    1.00000;
	132	 1	 110.31	 18.30	 0.0	 0.0	 1	    1.08038	  -12.40419	 225.0	 1	    1.08889	    1.00000;
	133	 2	 13.04	 3.30	 0.0	 0.0	 1	    1.06538	    9.60268	 63.0	 1	    1.06538	    0.96825;
	134	 2	 0.00	 0.00	 0.0	 0.0	 1	    1.05063	   -4.09458	 150.0	 1	    1.08000	    0.96667;
	135	 2	 -8.90	 -4.40	 0.0	 0.0	 1	    1.07937	   -2.12712	 63.0	 1	    1.07937	    0.92063;
	136	 1	 -10.60	 -2.10	 0.0	 0.0	 1	    1.04759	   -5.20506	 225.0	 1	    1.08889	    0.98667;
	137	 1	 14.10	 -3.70	 0.0	 0.0	 1	    0.99947	    1.06877	 63.0	 1	    1.06349	    0.96825;
	138	 1	 11.30	 -2.70	 0.0	 0.0	 1	    1.07593	    0.92554	 225.0	 1	    1.08444	    1.00000;
	139	 1	 9.40	 -2.20	 0.0	 0.0	 1	    1.03551	  -16.66995	 63.0	 1	    1.06349	    0.96825;
	140	 1	 0.00	 0.00	 0.0	 0.0	 1	    1.02902	   -6.02907	 380.0	 1	    1.10526	    1.00000;
	2590	 1	 0.00	 0.00	 0.0	 0.0	 1	    1.03061	   -6.22754	 380.0	 1	    1.10526	    1.00000;
	141	 1	 15.08	 4.50	 0.0	 0.0	 1	    1.08114	  -17.19666	 225.0	 1	    1.08889	    1.00000;
	142	 1	 9.78	 5.20	 0.0	 0.0	 1	    1.03043	  -14.85909	 225.0	 1	    1.08889	    1.00000;
	143	 1	 20.90	 -1.30	 0.0	 0.0	 1	    1.04918	  -10.61041	 63.0	 1	    1.06349	    0.96825;
	144	 1	 45.37	 6.50	 0.0	 0.0	 1	    1.08783	  -17.47124	 150.0	 1	    1.10000	    0.90000;
	145	 1	 61.80	 -3.30	 0.0	 0.0	 1	    1.07356	  -16.33783	 225.0	 1	    1.08925	    1.00000;
	146	 2	 0.00	 -0.00	 0.0	 0.0	 1	    1.00192	  -11.14574	 225.0	 1	    1.08889	    1.00000;
	147	 1	 0.00	 0.00	 0.0	 0.0	 1	    1.06472	   -4.90083	 225.0	 1	    1.08889	    0.93333;
	148	 1	 0.00	 0.00	 0.0	 0.0	 1	    1.07266	   -1.47538	 380.0	 1	    1.10526	    1.00000;
	2591	 1	 0.00	 0.00	 0.0	 0.0	 1	    1.07267	   -1.47802	 380.0	 1	    1.10526	    1.00000;
	149	 1	 0.00	 0.00	 0.0	 0.0	 1	    1.01176	  -15.85817	 225.0	 1	    1.08889	    1.00000;
	2592	 1	 83.95	 10.20	 0.0	 0.0	 1	    1.00972	  -17.26405	 225.0	 1	    1.08889	    1.00000;
	150	 1	 0.00	 0.00	 0.0	 0.0	 1	    1.07310	   -6.39712	 225.0	 1	    1.08889	    0.98667;
	151	 1	 13.31	 4.50	 0.0	 0.0	 1	    1.01156	  -15.87349	 225.0	 1	    1.08889	    1.00000;
	152	 1	 0.00	 0.00	 0.0	 0.0	 1	    1.02005	   -1.57770	 20.0	 1	    1.20000	    0.80000;
	153	 1	 88.20	 -7.10	 0.0	 0.0	 1	    1.02235	   -1.51392	 225.0	 1	    1.08889	    0.93333;
	154	 1	 0.00	 0.00	 0.0	 0.0	 1	    1.06608	   -1.36999	 380.0	 1	    1.10526	    1.00000;
	155	 1	 23.80	 -12.30	 0.0	 0.0	 1	    1.07900	  -15.35488	 225.0	 1	    1.08889	    1.00000;
	156	 1	 18.20	 -0.60	 0.0	 0.0	 1	    1.04984	   -3.21897	 63.0	 1	    1.06503	    0.93651;
	157	 1	 0.54	 0.20	 0.0	 0.0	 1	    1.05554	   -1.88577	 63.0	 1	    1.06349	    0.96825;
	158	 1	 18.70	 -2.50	 0.0	 0.0	 1	    1.04070	   -9.74652	 63.0	 1	    1.07937	    0.92063;
	159	 1	 19.20	 -1.00	 0.0	 0.0	 1	    1.04542	  -12.84724	 63.0	 1	    1.06349	    0.96825;
	160	 1	 5.43	 0.20	 0.0	 0.0	 1	    1.05884	   -7.38240	 63.0	 1	    1.06349	    0.93651;
	161	 2	 0.00	 0.00	 0.0	 0.0	 1	    1.04993	    4.06092	 63.0	 1	    1.15000	    0.80000;
	162	 1	 3.80	 3.90	 0.0	 0.0	 1	    1.01675	  -12.97923	 225.0	 1	    1.09053	    1.00000;
	163	 1	 0.00	 0.00	 0.0	 0.0	 1	    1.05526	  -19.64590	 63.0	 1	    1.06349	    0.96825;
	164	 1	 68.70	 -27.80	 0.0	 0.0	 1	    1.08926	  -21.80782	 225.0	 1	    1.09791	    1.00000;
	165	 1	 70.90	 -7.80	 0.0	 0.0	 1	    1.08238	   -7.21046	 225.0	 1	    1.08889	    0.98667;
	166	 1	 48.50	 1.20	 0.0	 0.0	 1	    1.04503	   -6.95853	 63.0	 1	    1.06349	    0.96825;
	167	 1	 90.88	 15.70	 0.0	 0.0	 1	    1.04302	  -13.70902	 225.0	 1	    1.09067	    1.00000;
	168	 1	 10.20	 -5.90	 0.0	 0.0	 1	    1.05808	    0.98375	 63.0	 1	    1.06349	    0.93651;
	169	 1	 22.50	 -8.30	 0.0	 0.0	 1	    1.01297	    6.75645	 63.0	 1	    1.06349	    0.96825;
	170	 1	 4.21	 1.20	 0.0	 0.0	 1	    1.04040	   -6.25359	 63.0	 1	    1.06822	    0.93651;
	171	 1	 141.14	 36.40	 0.0	 0.0	 1	    1.03922	  -14.34054	 225.0	 1	    1.08889	    0.92444;
	172	 2	 -0.00	 0.00	 0.0	 0.0	 1	    1.01985	   12.12022	 63.0	 1	    1.06349	    0.96825;
	173	 1	 46.90	 -16.30	 0.0	 0.0	 1	    1.08074	   -4.46425	 225.0	 1	    1.09616	    0.98667;
	174	 1	 0.00	 0.00	 0.0	 0.0	 1	    1.07837	   -4.16658	 380.0	 1	    1.10526	    1.00000;
	175	 1	 83.40	 -19.90	 0.0	 0.0	 1	    1.07469	  -18.00340	 225.0	 1	    1.08444	    1.00000;
	176	 1	 0.00	 0.00	 0.0	 -64.0	 1	    1.03241	  -13.75009	 20.0	 1	    1.20000	    0.80000;
	177	 1	 0.00	 0.00	 0.0	 0.0	 1	    1.01704	  -12.02936	 63.0	 1	    1.06349	    0.96086;
	178	 1	 0.00	 0.00	 0.0	 0.0	 1	    1.08444	  -13.55921	 225.0	 1	    1.08444	    1.00000;
	179	 1	 0.00	 0.00	 0.0	 0.0	 1	    1.08203	  -11.76529	 380.0	 1	    1.10263	    1.00000;
	180	 1	 -0.30	 -5.10	 0.0	 0.0	 1	    1.02301	   -1.52069	 225.0	 1	    1.08889	    0.93333;
	181	 1	 -0.20	 -8.90	 0.0	 0.0	 1	    0.96910	   -4.64888	 45.0	 1	    1.01652	    0.88889;
	182	 1	 0.00	 0.00	 0.0	 0.0	 1	    1.03795	   -2.67953	 63.0	 1	    1.06349	    0.93651;
	183	 1	 0.00	 0.00	 0.0	 0.0	 1	    1.05376	   -1.23172	 225.0	 1	    1.08889	    0.93333;
	184	 2	 0.00	 0.00	 0.0	 0.0	 1	    1.06203	    2.03351	 225.0	 1	    1.08889	    0.97778;
	185	 1	 12.80	 -5.20	 0.0	 0.0	 1	    1.01787	   -2.02243	 63.0	 1	    1.06349	    0.93651;
	186	 1	 -3.50	 -3.50	 0.0	 0.0	 1	    1.08930	   -9.64409	 225.0	 1	    1.09862	    1.00000;
	187	 1	 0.00	 0.00	 0.0	 0.0	 1	    1.08461	   -9.67068	 380.0	 1	    1.10526	    1.00000;
	2593	 1	 0.00	 0.00	 0.0	 0.0	 1	    1.08465	   -9.65890	 380.0	 1	    1.10526	    1.00000;
	2594	 1	 0.00	 0.00	 0.0	 0.0	 1	    1.08452	   -9.70953	 380.0	 1	    1.10526	    1.00000;
	2595	 1	 0.00	 0.00	 0.0	 0.0	 1	    1.08461	   -9.66732	 380.0	 1	    1.10526	    1.00000;
	188	 1	 0.00	 0.00	 0.0	 0.0	 1	    1.08076	   -4.46319	 225.0	 1	    1.09683	    0.98667;
	2596	 1	 0.00	 0.00	 0.0	 0.0	 1	    1.08037	   -4.33972	 225.0	 1	    1.09683	    0.98667;
	189	 1	 0.00	 0.00	 0.0	 0.0	 1	    1.07711	   -4.05729	 380.0	 1	    1.10526	    1.00000;
	190	 1	 8.40	 -10.30	 0.0	 0.0	 1	    1.03385	  -12.33932	 225.0	 1	    1.08889	    0.96889;
	191	 1	 34.10	 -3.50	 0.0	 0.0	 1	    1.03290	  -19.55036	 63.0	 1	    1.06349	    0.96825;
	192	 1	 39.67	 4.50	 0.0	 0.0	 1	    1.08402	  -14.58351	 225.0	 1	    1.08444	    1.00000;
	193	 1	 15.49	 4.20	 0.0	 0.0	 1	    1.05331	   -5.65612	 380.0	 1	    1.10526	    1.00000;
	194	 1	 0.00	 0.00	 0.0	 0.0	 1	    1.05026	   -6.00484	 63.0	 1	    1.06349	    0.93651;
	2597	 1	 0.00	 0.00	 0.0	 0.0	 1	    1.04209	   -5.89114	 63.0	 1	    1.06349	    0.93651;
	195	 1	 0.00	 0.00	 0.0	 0.0	 1	    1.07201	   -3.03296	 225.0	 1	    1.08889	    0.93333;
	196	 1	 0.00	 0.00	 0.0	 0.0	 1	    1.06950	   -0.29472	 380.0	 1	    1.10526	    1.00000;
	197	 1	 5.03	 13.70	 0.0	 0.0	 1	    1.04260	   -1.26129	 63.0	 1	    1.06349	    0.96825;
	198	 1	 0.00	 0.00	 0.0	 0.0	 1	    1.07022	    0.73857	 225.0	 1	    1.08444	    1.00000;
	199	 1	 207.03	 6.20	 0.0	 0.0	 1	    1.07352	   -9.49849	 225.0	 1	    1.08444	    1.00000;
	200	 1	 40.62	 3.00	 0.0	 0.0	 1	    1.07445	   -3.45586	 225.0	 1	    1.08889	    0.93333;
	2598	 1	 47.55	 3.50	 0.0	 0.0	 1	    1.07443	   -3.46299	 225.0	 1	    1.08889	    0.93333;
	201	 1	 24.10	 -16.40	 0.0	 0.0	 1	    1.01679	  -12.97769	 225.0	 1	    1.09027	    1.00000;
	202	 1	 0.00	 0.00	 0.0	 0.0	 1	    1.06899	   -4.14454	 225.0	 1	    1.09529	    1.00000;
	2599	 1	 0.00	 0.00	 0.0	 0.0	 1	    1.06898	   -4.14452	 225.0	 1	    1.09529	    1.00000;
	203	 1	 49.99	 5.30	 0.0	 0.0	 1	    1.07767	  -16.86541	 225.0	 1	    1.08889	    1.00000;
	204	 1	 20.40	 -4.20	 0.0	 0.0	 1	    1.03116	  -12.51347	 225.0	 1	    1.08889	    1.00000;
	205	 1	 0.00	 0.00	 0.0	 0.0	 1	    1.00878	    3.72595	 63.0	 1	    1.06349	    0.96825;
	206	 1	 0.00	 0.00	 0.0	 0.0	 1	    1.06918	    1.43404	 225.0	 1	    1.08444	    1.00000;
	207	 1	 8.42	 2.70	 0.0	 0.0	 1	    1.04498	  -11.76070	 63.0	 1	    1.06349	    0.96825;
	208	 1	 13.04	 1.00	 0.0	 0.0	 1	    1.07213	  -18.01789	 63.0	 1	    1.07937	    0.92063;
	209	 1	 25.70	 -12.70	 0.0	 0.0	 1	    1.05873	    0.06967	 63.0	 1	    1.06349	    0.93651;
	210	 1	 0.00	 0.00	 0.0	 0.0	 1	    1.05763	  -22.24840	 63.0	 1	    1.07937	    0.92063;
	211	 1	 26.50	 -2.30	 0.0	 0.0	 1	    1.07858	  -17.63495	 225.0	 1	    1.08889	    1.00000;
	212	 1	 0.00	 0.00	 0.0	 0.0	 1	    1.07657	   -7.75979	 225.0	 1	    1.08444	    1.00000;
	213	 1	 0.00	 0.00	 0.0	 0.0	 1	    1.07651	   -7.76835	 225.0	 1	    1.08444	    1.00000;
	2600	 1	 0.00	 0.00	 0.0	 0.0	 1	    1.07544	   -2.67217	 225.0	 1	    1.08444	    1.00000;
	214	 1	 0.00	 0.00	 0.0	 0.0	 1	    1.07793	   -2.20076	 380.0	 1	    1.10263	    1.00000;
	215	 1	 1.50	 -0.00	 0.0	 0.0	 1	    1.03260	   -5.79754	 63.0	 1	    1.06418	    0.93651;
	216	 1	 101.10	 -8.80	 0.0	 0.0	 1	    1.03454	  -15.20797	 225.0	 1	    1.08889	    0.88889;
	217	 1	 0.00	 0.00	 0.0	 0.0	 1	    1.08929	   -9.64419	 225.0	 1	    1.09861	    1.00000;
	218	 1	 0.00	 0.00	 0.0	 0.0	 1	    1.08460	   -9.71610	 380.0	 1	    1.10526	    1.00000;
	219	 1	 23.50	 3.30	 0.0	 0.0	 1	    1.05815	   -9.36679	 225.0	 1	    1.08889	    0.98667;
	220	 2	 0.00	 0.00	 0.0	 0.0	 1	    1.03028	  -12.40900	 63.0	 1	    1.06349	    0.96825;
	221	 1	 21.60	 -6.30	 0.0	 0.0	 1	    1.04338	   -8.86231	 63.0	 1	    1.07937	    0.92063;
	222	 1	 0.00	 0.00	 0.0	 0.0	 1	    1.08142	   -9.78829	 225.0	 1	    1.08889	    1.00000;
	223	 1	 0.00	 0.00	 0.0	 0.0	 1	    1.06304	  -23.56748	 225.0	 1	    1.08444	    1.00000;
	2601	 1	 0.00	 0.00	 0.0	 0.0	 1	    1.06303	  -23.56728	 225.0	 1	    1.08444	    1.00000;
	2602	 1	 0.00	 0.00	 0.0	 0.0	 1	    1.06303	  -23.56728	 225.0	 1	    1.08444	    1.00000;
	224	 1	 60.60	 -5.70	 0.0	 0.0	 1	    1.06303	  -23.56725	 225.0	 1	    1.08444	    1.00000;
	225	 2	 0.00	 0.00	 0.0	 0.0	 1	    1.04251	   -1.47503	 20.0	 1	    1.20000	    0.80000;
	226	 1	 0.00	 0.00	 0.0	 0.0	 1	    1.04835	   -1.85602	 225.0	 1	    1.08889	    0.93333;
	227	 1	 8.42	 7.30	 0.0	 0.0	 1	    1.05590	   -4.50233	 225.0	 1	    1.08889	    0.98667;
	228	 1	 0.00	 0.00	 0.0	 0.0	 1	    1.06159	   -4.32342	 20.0	 1	    1.20000	    0.80000;
	229	 1	 0.00	 0.00	 0.0	 0.0	 1	    1.06703	   -4.23502	 225.0	 1	    1.09040	    1.00000;
	230	 1	 0.00	 0.00	 0.0	 0.0	 1	    1.08229	   -3.87405	 380.0	 1	    1.10526	    1.00000;
	231	 2	 0.00	 0.00	 0.0	 0.0	 1	    1.06064	   -7.20976	 225.0	 1	    1.08889	    0.93333;
	232	 1	 15.49	 0.60	 0.0	 0.0	 1	    1.01395	   -1.36466	 63.0	 1	    1.06349	    0.96825;
	2603	 1	 12.23	 0.10	 0.0	 0.0	 1	    1.03278	    3.62182	 63.0	 1	    1.06349	    0.96825;
	233	 1	 0.00	 0.00	 0.0	 0.0	 1	    1.06649	    0.00866	 150.0	 1	    1.08000	    0.96667;
	234	 1	 1.20	 -0.90	 0.0	 0.0	 1	    1.00319	  -11.42795	 225.0	 1	    1.08889	    1.00000;
	2604	 1	 37.30	 -0.10	 0.0	 0.0	 1	    1.00287	  -11.46530	 225.0	 1	    1.08889	    1.00000;
	235	 2	 0.00	 0.00	 0.0	 0.0	 1	    1.03869	   -2.24231	 63.0	 1	    1.06349	    0.93651;
	236	 2	 35.73	 1.10	 0.0	 0.0	 1	    1.01552	   -6.49867	 63.0	 1	    1.06349	    0.96825;
	237	 1	 13.40	 -0.30	 0.0	 0.0	 1	    1.01310	   -1.53985	 63.0	 1	    1.06349	    0.93651;
	238	 1	 46.46	 0.70	 0.0	 0.0	 1	    1.03273	  -15.03429	 225.0	 1	    1.08889	    0.88889;
	240	 2	 0.00	 0.00	 0.0	 0.0	 1	    1.07941	   -3.83382	 380.0	 1	    1.10694	    1.00000;
	241	 1	 13.45	 3.20	 0.0	 0.0	 1	    1.04108	   -4.07233	 63.0	 1	    1.06721	    0.93651;
	242	 1	 39.80	 2.00	 0.0	 0.0	 1	    1.04491	   -6.77145	 63.0	 1	    1.06349	    0.96825;
	243	 1	 94.10	 -4.70	 0.0	 0.0	 1	    1.07858	  -17.61257	 225.0	 1	    1.08889	    1.00000;
	244	 1	 42.93	 4.20	 0.0	 0.0	 1	    1.04450	  -14.01086	 63.0	 1	    1.06349	    0.96825;
	245	 1	 27.58	 9.90	 0.0	 0.0	 1	    1.08656	   -6.17053	 225.0	 1	    1.08889	    0.98667;
	246	 1	 0.00	 0.00	 0.0	 0.0	 1	    1.06486	    0.76050	 380.0	 1	    1.10526	    1.00000;
	2609	 1	 0.00	 0.00	 0.0	 0.0	 1	    1.07078	    0.46700	 380.0	 1	    1.10526	    1.00000;
	2610	 1	 0.00	 0.00	 0.0	 0.0	 1	    1.06487	    0.80857	 380.0	 1	    1.10526	    1.00000;
	2611	 1	 0.00	 0.00	 0.0	 0.0	 1	    1.07085	    0.56885	 380.0	 1	    1.10526	    1.00000;
	247	 1	 6.00	 -0.90	 0.0	 0.0	 1	    1.05017	  -10.12347	 225.0	 1	    1.08889	    0.92444;
	248	 1	 23.64	 1.80	 0.0	 0.0	 1	    1.04494	   -0.47637	 63.0	 1	    1.06349	    0.93651;
	249	 1	 9.40	 -0.60	 0.0	 0.0	 1	    1.01441	  -10.46919	 63.0	 1	    1.06349	    0.93651;
	250	 1	 5.71	 1.90	 0.0	 0.0	 1	    1.06288	  -11.37378	 225.0	 1	    1.08889	    0.98667;
	251	 1	 84.36	 20.20	 0.0	 0.0	 1	    1.04639	  -20.04355	 225.0	 1	    1.08684	    1.00000;
	252	 2	 7.47	 4.50	 0.0	 0.0	 1	    0.94184	    1.99229	 45.0	 1	    1.00000	    0.88889;
	253	 1	 -2.80	 -1.50	 0.0	 0.0	 1	    1.06877	    1.92701	 380.0	 1	    1.10263	    1.00000;
	254	 1	 -2.80	 -1.40	 0.0	 0.0	 1	    1.06884	    1.84901	 380.0	 1	    1.10263	    1.00000;
	255	 1	 8.30	 -7.30	 0.0	 0.0	 1	    1.05121	    2.17770	 63.0	 1	    1.06754	    0.93651;
	256	 1	 0.00	 0.00	 0.0	 0.0	 1	    1.00176	  -12.25713	 225.0	 1	    1.08889	    1.00000;
	257	 1	 0.00	 0.00	 0.0	 0.0	 1	    1.08626	   -3.29929	 225.0	 1	    1.08889	    0.97778;
	2612	 1	 0.00	 0.00	 0.0	 0.0	 1	    1.08571	   -3.42664	 225.0	 1	    1.08889	    0.97778;
	258	 1	 19.30	 -3.20	 0.0	 0.0	 1	    1.03185	  -12.62713	 225.0	 1	    1.08889	    0.96889;
	259	 2	 0.00	 0.00	 0.0	 0.0	 1	    1.07988	    9.58464	 20.0	 1	    1.20000	    0.80000;
	2613	 2	 0.00	 0.00	 0.0	 0.0	 1	    1.07382	    0.24208	 20.0	 1	    1.20000	    0.80000;
	2614	 2	 0.00	 0.00	 0.0	 0.0	 1	    1.07382	    0.24208	 20.0	 1	    1.20000	    0.80000;
	260	 1	 0.00	 0.00	 0.0	 0.0	 1	    1.07064	    3.53255	 225.0	 1	    1.08889	    0.93333;
	2615	 1	 0.00	 0.00	 0.0	 0.0	 1	    1.07382	    0.24208	 225.0	 1	    1.08889	    0.93333;
	261	 1	 67.92	 4.40	 0.0	 0.0	 1	    1.06923	  -15.38567	 225.0	 1	    1.08489	    1.00000;
	262	 2	 13.90	 -2.10	 0.0	 0.0	 1	    0.94419	    2.35516	 45.0	 1	    1.00000	    0.88889;
	263	 1	 25.81	 1.90	 0.0	 0.0	 1	    1.07880	  -16.33878	 20.0	 1	    1.20000	    0.80000;
	2616	 1	 17.50	 -0.70	 0.0	 0.0	 1	    1.07883	  -16.33547	 20.0	 1	    1.20000	    0.80000;
	2617	 1	 10.80	 -3.50	 0.0	 0.0	 1	    1.07886	  -16.33282	 20.0	 1	    1.20000	    0.80000;
	264	 1	 134.00	 -1.70	 0.0	 0.0	 1	    1.07884	  -16.32824	 225.0	 1	    1.08444	    1.00000;
	265	 1	 15.20	 -2.70	 0.0	 0.0	 1	    1.04687	   -7.54935	 63.0	 1	    1.06349	    0.96825;
	266	 1	 0.00	 0.00	 0.0	 0.0	 1	    1.06930	   -2.56529	 225.0	 1	    1.08889	    0.97778;
	267	 1	 0.00	 0.00	 0.0	 0.0	 1	    1.06672	   -7.36146	 225.0	 1	    1.08444	    1.00000;
	268	 1	 15.80	 -8.10	 0.0	 0.0	 1	    1.05478	    0.09777	 63.0	 1	    1.06349	    0.93651;
	269	 1	 38.72	 3.50	 0.0	 0.0	 1	    1.00608	  -16.08674	 63.0	 1	    1.06349	    0.96825;
	270	 1	 59.20	 -3.00	 0.0	 0.0	 1	    1.03960	  -13.88428	 225.0	 1	    1.08889	    0.95111;
	271	 2	 0.00	 0.00	 0.0	 0.0	 1	    1.05859	    7.12640	 63.0	 1	    1.06349	    0.93651;
	272	 1	 54.61	 1.20	 0.0	 0.0	 1	    1.01748	  -14.47411	 225.0	 1	    1.08889	    1.00000;
	273	 1	 15.70	 -9.20	 0.0	 0.0	 1	    1.06222	  -11.55594	 225.0	 1	    1.08889	    0.98667;
	274	 2	 0.00	 0.00	 0.0	 0.0	 1	    1.06349	   13.00676	 63.0	 1	    1.06349	    0.93651;
	275	 2	 0.00	 0.00	 0.0	 0.0	 1	    1.06349	   10.71718	 63.0	 1	    1.06349	    0.93651;