%%%%%%%%%%%%%%%%%%%%%%%%%%%%%%%%%%%%%%%%%%%%%%%%%%%%%%%%%%%%%%%%%%%%%%%%%%%
%%%%                                                                  %%%%%
%%%%    IEEE PES Power Grid Library - Optimal Power Flow - v17.07     %%%%%
%%%%          (https://github.com/power-grid-lib/pglib-opf)           %%%%%
%%%%             Benchmark Group - Active Power Increase              %%%%%
%%%%                         27 - June - 2017                         %%%%%
%%%%                                                                  %%%%%
%%%%%%%%%%%%%%%%%%%%%%%%%%%%%%%%%%%%%%%%%%%%%%%%%%%%%%%%%%%%%%%%%%%%%%%%%%%
function mpc = pglib_opf_case300_ieee__api
mpc.version = '2';
mpc.baseMVA = 100.0;

%% bus data
%	bus_i	type	Pd	Qd	Gs	Bs	area	Vm	Va	baseKV	zone	Vmax	Vmin
mpc.bus = [
	1	 1	 101.77	 49.00	 0.0	 0.0	 1	    1.04460	    1.00116	 115.0	 1	    1.06000	    0.94000;
	2	 1	 63.32	 15.00	 0.0	 0.0	 1	    1.05391	    2.97897	 115.0	 1	    1.06000	    0.94000;
	3	 1	 20.00	 0.00	 0.0	 0.0	 1	    1.01665	   -0.25588	 230.0	 1	    1.06000	    0.94000;
	4	 1	 0.00	 0.00	 0.0	 0.0	 1	    1.04806	   -1.55445	 345.0	 1	    1.06000	    0.94000;
	5	 1	 399.15	 130.00	 0.0	 0.0	 1	    1.03709	   -0.59258	 115.0	 1	    1.06000	    0.94000;
	6	 1	 135.69	 41.00	 0.0	 0.0	 1	    1.04908	    1.78279	 115.0	 1	    1.06000	    0.94000;
	7	 1	 0.00	 0.00	 0.0	 0.0	 1	    1.01277	   -0.70954	 230.0	 1	    1.06000	    0.94000;
	8	 2	 71.24	 14.00	 0.0	 0.0	 1	    1.06000	   -3.53601	 115.0	 1	    1.06000	    0.94000;
	9	 1	 108.55	 43.00	 0.0	 0.0	 1	    1.03377	   -2.22340	 115.0	 1	    1.06000	    0.94000;
	10	 2	 173.00	 33.00	 0.0	 0.0	 1	    1.05124	   -3.73176	 230.0	 1	    1.06000	    0.94000;
	11	 1	 93.85	 21.00	 0.0	 0.0	 1	    1.04775	   -2.30936	 115.0	 1	    1.06000	    0.94000;
	12	 1	 0.00	 0.00	 0.0	 0.0	 1	    1.02064	    0.27559	 230.0	 1	    1.06000	    0.94000;
	13	 1	 65.58	 10.00	 0.0	 0.0	 1	    1.04811	   -5.36318	 115.0	 1	    1.06000	    0.94000;
	14	 1	 180.92	 60.00	 0.0	 0.0	 1	    1.00299	  -12.25086	 115.0	 1	    1.06000	    0.94000;
	15	 1	 143.26	 23.00	 0.0	 0.0	 1	    1.00527	  -17.50637	 115.0	 1	    1.06000	    0.94000;
	16	 1	 0.00	 0.00	 0.0	 0.0	 1	    1.03621	   -6.50996	 345.0	 1	    1.06000	    0.94000;
	17	 1	 634.34	 220.00	 0.0	 0.0	 1	    0.94425	  -28.63746	 115.0	 1	    1.06000	    0.94000;
	19	 1	 0.00	 0.00	 0.0	 0.0	 1	    1.01778	   -4.30225	 230.0	 1	    1.06000	    0.94000;
	20	 2	 684.09	 120.00	 0.0	 0.0	 1	    1.06000	   -7.21070	 115.0	 1	    1.06000	    0.94000;
	21	 1	 87.07	 1.00	 0.0	 0.0	 1	    1.01336	   -3.32150	 230.0	 1	    1.06000	    0.94000;
	22	 1	 91.59	 23.00	 0.0	 0.0	 1	    1.04055	   -5.49666	 115.0	 1	    1.06000	    0.94000;
	23	 1	 23.75	 7.00	 0.0	 0.0	 1	    1.06000	    4.99851	 115.0	 1	    1.06000	    0.94000;
	24	 1	 0.00	 0.00	 0.0	 0.0	 1	    1.03602	    2.18117	 230.0	 1	    1.06000	    0.94000;
	25	 1	 50.88	 12.00	 0.0	 0.0	 1	    1.03284	    1.73875	 115.0	 1	    1.06000	    0.94000;
	26	 1	 31.66	 9.00	 0.0	 0.0	 1	    1.01148	   -2.68882	 115.0	 1	    1.06000	    0.94000;
	27	 1	 78.02	 13.00	 0.0	 0.0	 1	    1.00353	   -7.60094	 115.0	 1	    1.06000	    0.94000;
	33	 1	 62.19	 6.00	 0.0	 0.0	 1	    1.04262	  -11.70771	 115.0	 1	    1.06000	    0.94000;
	34	 1	 0.00	 0.00	 0.0	 0.0	 1	    1.05329	   -6.63811	 345.0	 1	    1.06000	    0.94000;
	35	 1	 0.00	 0.00	 0.0	 0.0	 1	    1.04584	  -11.50571	 115.0	 1	    1.06000	    0.94000;
	36	 1	 0.00	 0.00	 0.0	 0.0	 1	    1.05190	   -8.62611	 230.0	 1	    1.06000	    0.94000;
	37	 1	 96.11	 32.00	 0.0	 0.0	 1	    1.03941	  -11.47891	 115.0	 1	    1.06000	    0.94000;
	38	 1	 175.26	 18.00	 0.0	 0.0	 1	    1.03891	  -12.30194	 115.0	 1	    1.06000	    0.94000;
	39	 1	 0.00	 0.00	 0.0	 0.0	 1	    1.06000	   -4.01095	 345.0	 1	    1.06000	    0.94000;
	40	 1	 46.00	 -21.00	 0.0	 0.0	 1	    1.04097	  -12.76389	 115.0	 1	    1.06000	    0.94000;
	41	 1	 86.00	 0.00	 0.0	 0.0	 1	    1.04671	  -10.07489	 115.0	 1	    1.06000	    0.94000;
	42	 1	 0.00	 0.00	 0.0	 0.0	 1	    1.05651	   -6.01512	 345.0	 1	    1.06000	    0.94000;
	43	 1	 44.10	 9.00	 0.0	 0.0	 1	    1.02982	  -15.58254	 115.0	 1	    1.06000	    0.94000;
	44	 1	 220.49	 29.00	 0.0	 0.0	 1	    1.04656	  -13.72303	 115.0	 1	    1.06000	    0.94000;
	45	 1	 0.00	 0.00	 0.0	 0.0	 1	    1.05654	  -10.33211	 230.0	 1	    1.06000	    0.94000;
	46	 1	 0.00	 0.00	 0.0	 0.0	 1	    1.05825	   -7.01825	 345.0	 1	    1.06000	    0.94000;
	47	 1	 65.58	 11.80	 0.0	 0.0	 1	    1.02423	  -16.53476	 115.0	 1	    1.06000	    0.94000;
	48	 1	 46.36	 19.00	 0.0	 0.0	 1	    1.02950	  -17.22040	 115.0	 1	    1.06000	    0.94000;
	49	 1	 104.03	 26.00	 0.0	 0.0	 1	    1.05900	   -3.10277	 115.0	 1	    1.06000	    0.94000;
	51	 1	 -5.00	 5.00	 0.0	 0.0	 1	    1.03969	   -9.25925	 115.0	 1	    1.06000	    0.94000;
	52	 1	 68.97	 28.00	 0.0	 0.0	 1	    1.01770	  -15.93845	 115.0	 1	    1.06000	    0.94000;
	53	 1	 78.02	 3.00	 0.0	 0.0	 1	    1.02590	  -16.93260	 115.0	 1	    1.06000	    0.94000;
	54	 1	 11.31	 1.00	 0.0	 0.0	 1	    1.03800	  -16.38312	 115.0	 1	    1.06000	    0.94000;
	55	 1	 24.88	 10.00	 0.0	 0.0	 1	    1.04454	  -18.17501	 115.0	 1	    1.06000	    0.94000;
	57	 1	 110.81	 20.00	 0.0	 0.0	 1	    1.06000	  -22.26597	 115.0	 1	    1.06000	    0.94000;
	58	 1	 15.83	 1.00	 0.0	 0.0	 1	    1.01281	  -24.21875	 115.0	 1	    1.06000	    0.94000;
	59	 1	 246.50	 106.00	 0.0	 0.0	 1	    1.00236	  -24.73432	 115.0	 1	    1.06000	    0.94000;
	60	 1	 0.00	 0.00	 0.0	 0.0	 1	    1.05766	   -9.80009	 230.0	 1	    1.06000	    0.94000;
	61	 1	 256.68	 110.00	 0.0	 0.0	 1	    1.01708	  -23.34305	 115.0	 1	    1.06000	    0.94000;
	62	 1	 0.00	 0.00	 0.0	 0.0	 1	    1.03180	   -8.72712	 230.0	 1	    1.06000	    0.94000;
	63	 2	 79.15	 30.00	 0.0	 0.0	 1	    1.05250	  -26.12259	 115.0	 1	    1.06000	    0.94000;
	64	 1	 0.00	 0.00	 0.0	 0.0	 1	    1.01866	  -21.64124	 230.0	 1	    1.06000	    0.94000;
	69	 1	 0.00	 0.00	 0.0	 0.0	 1	    1.01027	  -11.92510	 115.0	 1	    1.06000	    0.94000;
	70	 1	 63.32	 20.00	 0.0	 0.0	 1	    1.02826	  -17.64917	 115.0	 1	    1.06000	    0.94000;
	71	 1	 131.16	 38.00	 0.0	 0.0	 1	    1.05548	  -12.71392	 115.0	 1	    1.06000	    0.94000;
	72	 1	 64.45	 19.00	 0.0	 0.0	 1	    1.03769	  -12.48836	 115.0	 1	    1.06000	    0.94000;
	73	 1	 253.28	 71.00	 0.0	 0.0	 1	    1.03370	  -13.02663	 115.0	 1	    1.06000	    0.94000;
	74	 1	 0.00	 0.00	 0.0	 0.0	 1	    1.04527	  -10.47120	 230.0	 1	    1.06000	    0.94000;
	76	 2	 235.19	 107.00	 0.0	 0.0	 1	    1.04451	  -12.79985	 115.0	 1	    1.06000	    0.94000;
	77	 1	 83.67	 28.00	 0.0	 0.0	 1	    1.04333	  -10.27125	 115.0	 1	    1.06000	    0.94000;
	78	 1	 0.00	 0.00	 0.0	 0.0	 1	    1.04409	   -9.22502	 115.0	 1	    1.06000	    0.94000;
	79	 1	 54.27	 14.00	 0.0	 0.0	 1	    1.03563	  -10.78237	 115.0	 1	    1.06000	    0.94000;
	80	 1	 31.66	 7.00	 0.0	 0.0	 1	    1.03870	  -10.27758	 115.0	 1	    1.06000	    0.94000;
	81	 1	 0.00	 0.00	 0.0	 0.0	 1	    1.05584	   -3.21107	 345.0	 1	    1.06000	    0.94000;
	84	 2	 41.84	 13.00	 0.0	 0.0	 1	    1.04456	   -0.48832	 115.0	 1	    1.06000	    0.94000;
	85	 1	 0.00	 0.00	 0.0	 0.0	 1	    1.05287	  -17.48773	 230.0	 1	    1.06000	    0.94000;
	86	 1	 0.00	 0.00	 0.0	 0.0	 1	    1.04373	  -17.81871	 230.0	 1	    1.06000	    0.94000;
	87	 1	 0.00	 0.00	 0.0	 0.0	 1	    1.03396	  -13.21622	 230.0	 1	    1.06000	    0.94000;
	88	 1	 0.00	 0.00	 0.0	 0.0	 1	    1.05442	   -6.98320	 230.0	 1	    1.06000	    0.94000;
	89	 1	 44.20	 0.00	 0.0	 0.0	 1	    1.03119	  -19.06538	 115.0	 1	    1.06000	    0.94000;
	90	 1	 66.00	 0.00	 0.0	 0.0	 1	    1.02644	  -16.88542	 115.0	 1	    1.06000	    0.94000;
	91	 2	 17.40	 0.00	 0.0	 0.0	 1	    1.06000	  -20.37383	 115.0	 1	    1.06000	    0.94000;
	92	 2	 15.80	 0.00	 0.0	 0.0	 1	    1.06000	  -17.35611	 115.0	 1	    1.06000	    0.94000;
	94	 1	 60.30	 0.00	 0.0	 0.0	 1	    1.03390	  -15.77137	 115.0	 1	    1.06000	    0.94000;
	97	 1	 39.90	 0.00	 0.0	 0.0	 1	    1.05046	  -20.98460	 115.0	 1	    1.06000	    0.94000;
	98	 2	 66.70	 0.00	 0.0	 0.0	 1	    1.05401	  -22.80645	 115.0	 1	    1.06000	    0.94000;
	99	 1	 83.50	 0.00	 0.0	 0.0	 1	    1.05586	  -17.20025	 115.0	 1	    1.06000	    0.94000;
	100	 1	 0.00	 0.00	 0.0	 0.0	 1	    1.05137	  -21.35506	 115.0	 1	    1.06000	    0.94000;
	102	 1	 77.80	 0.00	 0.0	 0.0	 1	    1.05098	  -20.73280	 115.0	 1	    1.06000	    0.94000;
	103	 1	 32.00	 0.00	 0.0	 0.0	 1	    1.05145	  -19.94145	 115.0	 1	    1.06000	    0.94000;
	104	 1	 8.60	 0.00	 0.0	 0.0	 1	    1.05546	  -19.78738	 115.0	 1	    1.06000	    0.94000;
	105	 1	 49.60	 0.00	 0.0	 0.0	 1	    1.04897	  -19.49118	 115.0	 1	    1.06000	    0.94000;
	107	 1	 4.60	 0.00	 0.0	 0.0	 1	    1.03925	  -18.10363	 115.0	 1	    1.06000	    0.94000;
	108	 2	 112.10	 0.00	 0.0	 0.0	 1	    1.06000	  -16.82559	 115.0	 1	    1.06000	    0.94000;
	109	 1	 30.70	 0.00	 0.0	 0.0	 1	    1.03295	  -21.79526	 115.0	 1	    1.06000	    0.94000;
	110	 1	 63.00	 0.00	 0.0	 0.0	 1	    1.03349	  -22.12350	 115.0	 1	    1.06000	    0.94000;
	112	 1	 19.60	 0.00	 0.0	 0.0	 1	    1.02387	  -23.03133	 115.0	 1	    1.06000	    0.94000;
	113	 1	 26.20	 0.00	 0.0	 0.0	 1	    1.01984	  -19.34793	 115.0	 1	    1.06000	    0.94000;
	114	 1	 18.20	 0.00	 0.0	 0.0	 1	    1.02485	  -22.64873	 115.0	 1	    1.06000	    0.94000;
	115	 1	 0.00	 0.00	 0.0	 0.0	 1	    0.98308	  -35.57138	 115.0	 2	    1.06000	    0.94000;
	116	 1	 0.00	 0.00	 0.0	 0.0	 1	    1.05130	  -25.64700	 115.0	 2	    1.06000	    0.94000;
	117	 1	 0.00	 0.00	 0.0	 325.0	 1	    0.96578	  -27.43290	 115.0	 2	    1.06000	    0.94000;
	118	 1	 15.94	 650.00	 0.0	 0.0	 1	    0.96028	  -27.12687	 115.0	 2	    1.06000	    0.94000;
	119	 2	 0.00	 0.00	 0.0	 0.0	 1	    1.05651	  -21.47528	 115.0	 2	    1.06000	    0.94000;
	120	 1	 878.58	 215.00	 0.0	 55.0	 1	    0.98180	  -33.01540	 115.0	 2	    1.06000	    0.94000;
	121	 1	 604.94	 55.00	 0.0	 0.0	 1	    1.01210	  -36.70554	 115.0	 2	    1.06000	    0.94000;
	122	 1	 259.05	 11.80	 0.0	 0.0	 1	    0.99932	  -34.93628	 115.0	 2	    1.06000	    0.94000;
	123	 1	 88.20	 1.40	 0.0	 0.0	 1	    1.03565	  -32.52608	 115.0	 2	    1.06000	    0.94000;
	124	 2	 312.53	 59.30	 0.0	 0.0	 1	    1.06000	  -24.69708	 115.0	 2	    1.06000	    0.94000;
	125	 2	 582.10	 82.70	 0.0	 0.0	 1	    1.06000	  -34.54429	 115.0	 2	    1.06000	    0.94000;
	126	 1	 65.47	 5.10	 0.0	 0.0	 1	    1.02984	  -28.58037	 115.0	 2	    1.06000	    0.94000;
	127	 1	 430.58	 37.00	 0.0	 0.0	 1	    1.02023	  -24.31604	 230.0	 2	    1.06000	    0.94000;
	128	 1	 0.00	 0.00	 0.0	 0.0	 1	    1.02885	  -15.23547	 230.0	 2	    1.06000	    0.94000;
	129	 1	 0.00	 0.00	 0.0	 0.0	 1	    1.03180	  -14.70196	 230.0	 2	    1.06000	    0.94000;
	130	 1	 0.00	 0.00	 0.0	 0.0	 1	    1.04724	   -9.29634	 230.0	 2	    1.06000	    0.94000;
	131	 1	 0.00	 0.00	 0.0	 0.0	 1	    1.00132	   -3.05403	 230.0	 2	    1.06000	    0.94000;
	132	 1	 0.00	 0.00	 0.0	 0.0	 1	    1.04269	  -12.93355	 230.0	 2	    1.06000	    0.94000;
	133	 1	 0.00	 0.00	 0.0	 0.0	 1	    1.03152	  -13.72995	 230.0	 2	    1.06000	    0.94000;
	134	 1	 0.00	 0.00	 0.0	 0.0	 1	    1.03336	  -23.47530	 230.0	 2	    1.06000	    0.94000;
	135	 1	 191.32	 41.60	 0.0	 0.0	 1	    1.02552	  -21.52017	 230.0	 2	    1.06000	    0.94000;
	136	 1	 62.42	 18.20	 0.0	 0.0	 1	    1.05161	  -11.10469	 230.0	 2	    1.06000	    0.94000;
	137	 1	 309.37	 99.80	 0.0	 0.0	 1	    1.04437	   -3.69998	 230.0	 2	    1.06000	    0.94000;
	138	 2	 1152.44	 135.20	 0.0	 0.0	 1	    1.06000	   -7.83166	 230.0	 2	    1.06000	    0.94000;
	139	 1	 672.78	 83.30	 0.0	 0.0	 1	    1.00754	  -16.49963	 115.0	 2	    1.06000	    0.94000;
	140	 1	 438.38	 114.70	 0.0	 0.0	 1	    1.03105	   -9.00449	 230.0	 2	    1.06000	    0.94000;
	141	 2	 163.96	 58.00	 0.0	 0.0	 1	    1.05125	   -4.36579	 230.0	 2	    1.06000	    0.94000;
	142	 1	 63.89	 24.50	 0.0	 0.0	 1	    0.99811	   -3.60772	 230.0	 2	    1.06000	    0.94000;
	143	 2	 101.20	 35.50	 0.0	 0.0	 1	    1.04473	    8.67087	 230.0	 2	    1.06000	    0.94000;
	144	 1	 0.00	 0.00	 0.0	 0.0	 1	    1.02989	   -7.38475	 230.0	 2	    1.06000	    0.94000;
	145	 1	 27.14	 14.00	 0.0	 0.0	 1	    1.00783	   -2.05423	 230.0	 2	    1.06000	    0.94000;
	146	 2	 0.00	 0.00	 0.0	 0.0	 1	    1.06000	   -0.60232	 230.0	 2	    1.06000	    0.94000;
	147	 2	 0.00	 0.00	 0.0	 0.0	 1	    1.06000	    3.20989	 230.0	 2	    1.06000	    0.94000;
	148	 1	 71.24	 25.00	 0.0	 0.0	 1	    1.06000	    3.15558	 230.0	 2	    1.06000	    0.94000;
	149	 2	 0.00	 0.00	 0.0	 0.0	 1	    1.06000	    4.47399	 230.0	 2	    1.06000	    0.94000;
	150	 1	 0.00	 0.00	 0.0	 0.0	 1	    1.00172	   -3.19128	 230.0	 2	    1.06000	    0.94000;
	151	 1	 0.00	 0.00	 0.0	 0.0	 1	    1.04350	  -11.89887	 230.0	 2	    1.06000	    0.94000;
	152	 2	 19.22	 9.00	 0.0	 0.0	 1	    1.06000	   -6.51792	 230.0	 2	    1.06000	    0.94000;
	153	 2	 0.00	 0.00	 0.0	 0.0	 1	    1.04689	  -10.19939	 230.0	 2	    1.06000	    0.94000;
	154	 1	 79.15	 5.00	 0.0	 34.5	 1	    0.97394	  -20.65569	 115.0	 2	    1.06000	    0.94000;
	155	 1	 226.15	 50.00	 0.0	 0.0	 1	    1.05016	   -8.63485	 230.0	 2	    1.06000	    0.94000;
	156	 2	 84.80	 50.00	 0.0	 0.0	 1	    1.00101	  -10.57098	 115.0	 2	    1.06000	    0.94000;
	157	 1	 123.50	 -24.30	 0.0	 0.0	 1	    1.01310	  -31.64780	 230.0	 2	    1.06000	    0.94000;
	158	 1	 0.00	 0.00	 0.0	 0.0	 1	    1.03032	  -28.62659	 230.0	 2	    1.06000	    0.94000;
	159	 1	 37.31	 16.50	 0.0	 0.0	 1	    1.01676	  -29.96373	 230.0	 2	    1.06000	    0.94000;
	160	 1	 0.00	 0.00	 0.0	 0.0	 1	    1.03644	  -26.49664	 230.0	 2	    1.06000	    0.94000;
	161	 1	 39.58	 15.00	 0.0	 0.0	 1	    1.04954	  -10.09821	 230.0	 2	    1.06000	    0.94000;
	162	 1	 96.11	 24.00	 0.0	 0.0	 1	    1.02778	    3.43048	 230.0	 2	    1.06000	    0.94000;
	163	 1	 0.00	 0.40	 0.0	 0.0	 1	    1.06000	   -3.87844	 230.0	 2	    1.06000	    0.94000;
	164	 1	 0.00	 0.00	 0.0	 -212.0	 1	    1.01459	   -3.81343	 230.0	 2	    1.06000	    0.94000;
	165	 1	 0.00	 0.00	 0.0	 0.0	 1	    1.03431	   10.11482	 230.0	 2	    1.06000	    0.94000;
	166	 1	 0.00	 0.00	 0.0	 -103.0	 1	    1.02885	   13.47858	 230.0	 2	    1.06000	    0.94000;
	167	 1	 339.11	 95.70	 0.0	 0.0	 1	    1.00171	  -18.15146	 230.0	 2	    1.06000	    0.94000;
	168	 1	 0.00	 0.00	 0.0	 0.0	 1	    1.02883	  -15.24887	 230.0	 2	    1.06000	    0.94000;
	169	 1	 0.00	 0.00	 0.0	 0.0	 1	    1.01619	  -16.88275	 230.0	 2	    1.06000	    0.94000;
	170	 2	 544.78	 205.00	 0.0	 0.0	 1	    1.00276	  -18.66709	 115.0	 2	    1.06000	    0.94000;
	171	 2	 863.42	 291.10	 0.0	 0.0	 1	    1.06000	  -18.34138	 115.0	 2	    1.06000	    0.94000;
	172	 1	 26.50	 0.00	 0.0	 0.0	 1	    1.01793	  -15.31752	 115.0	 2	    1.06000	    0.94000;
	173	 1	 184.87	 43.00	 0.0	 53.0	 1	    0.97186	  -21.33930	 115.0	 2	    1.06000	    0.94000;
	174	 1	 0.00	 0.00	 0.0	 0.0	 1	    1.06000	   -8.40701	 115.0	 2	    1.06000	    0.94000;
	175	 1	 199.01	 83.00	 0.0	 0.0	 1	    0.96077	  -10.78495	 115.0	 2	    1.06000	    0.94000;
	176	 2	 5.65	 4.00	 0.0	 0.0	 1	    1.06000	   -9.06951	 115.0	 2	    1.06000	    0.94000;
	177	 2	 31.66	 12.00	 0.0	 0.0	 1	    1.06000	   -5.97490	 115.0	 2	    1.06000	    0.94000;
	178	 1	 483.27	 173.60	 0.0	 0.0	 1	    0.94743	   -9.72436	 115.0	 2	    1.06000	    0.94000;
	179	 1	 83.67	 29.00	 0.0	 45.0	 1	    0.96135	  -11.76667	 115.0	 2	    1.06000	    0.94000;
	180	 1	 78.59	 49.30	 0.0	 0.0	 1	    0.98227	   -5.50198	 115.0	 2	    1.06000	    0.94000;
	181	 1	 73.40	 0.00	 0.0	 0.0	 1	    1.04920	   -2.23826	 230.0	 2	    1.06000	    0.94000;
	182	 1	 272.17	 89.00	 0.0	 0.0	 1	    1.02929	  -12.74620	 230.0	 2	    1.06000	    0.94000;
	183	 1	 45.23	 4.00	 0.0	 0.0	 1	    0.97521	  -13.39220	 115.0	 2	    1.06000	    0.94000;
	184	 1	 154.68	 16.60	 0.0	 0.0	 1	    1.04802	  -24.89244	 230.0	 2	    1.06000	    0.94000;
	185	 2	 0.00	 0.00	 0.0	 0.0	 1	    1.06000	  -23.81744	 230.0	 2	    1.06000	    0.94000;
	186	 2	 67.62	 24.30	 0.0	 0.0	 1	    1.06000	    2.80572	 230.0	 2	    1.06000	    0.94000;
	187	 2	 67.62	 24.30	 0.0	 0.0	 1	    1.06000	    3.91987	 230.0	 2	    1.06000	    0.94000;
	188	 1	 206.47	 43.60	 0.0	 0.0	 1	    1.04954	   -1.37129	 230.0	 2	    1.06000	    0.94000;
	189	 1	 7.92	 2.00	 0.0	 0.0	 1	    1.04445	  -15.38774	 66.0	 3	    1.06000	    0.94000;
	190	 2	 0.00	 0.00	 0.0	 -150.0	 1	    1.05955	    7.57271	 345.0	 3	    1.06000	    0.94000;
	191	 2	 552.93	 53.00	 0.0	 0.0	 1	    1.02611	   -1.88304	 230.0	 3	    1.06000	    0.94000;
	192	 1	 904.58	 72.00	 0.0	 0.0	 1	    0.94290	  -17.86788	 230.0	 3	    1.06000	    0.94000;
	193	 1	 0.00	 0.00	 0.0	 0.0	 1	    1.03506	  -15.07829	 66.0	 3	    1.06000	    0.94000;
	194	 1	 0.00	 0.00	 0.0	 0.0	 1	    1.05772	    3.08487	 345.0	 3	    1.06000	    0.94000;
	195	 1	 0.00	 0.00	 0.0	 0.0	 1	    1.04883	   -0.14083	 345.0	 3	    1.06000	    0.94000;
	196	 1	 11.31	 3.00	 0.0	 0.0	 1	    1.00889	  -13.43352	 115.0	 3	    1.06000	    0.94000;
	197	 1	 48.62	 14.00	 0.0	 0.0	 1	    1.02873	  -11.31699	 115.0	 3	    1.06000	    0.94000;
	198	 2	 72.37	 21.00	 0.0	 0.0	 1	    1.06000	  -10.73907	 115.0	 3	    1.06000	    0.94000;
	199	 1	 39.58	 12.00	 0.0	 0.0	 1	    0.99931	  -14.04449	 115.0	 3	    1.06000	    0.94000;
	200	 1	 30.53	 12.00	 0.0	 0.0	 1	    1.00881	  -12.89002	 115.0	 3	    1.06000	    0.94000;
	201	 1	 46.36	 14.00	 0.0	 0.0	 1	    1.02205	  -14.45385	 66.0	 1	    1.06000	    0.94000;
	202	 1	 42.97	 13.00	 0.0	 0.0	 1	    1.03636	  -11.28283	 66.0	 3	    1.06000	    0.94000;
	203	 1	 47.49	 14.00	 0.0	 0.0	 1	    1.04634	  -10.37284	 115.0	 3	    1.06000	    0.94000;
	204	 1	 81.41	 24.00	 0.0	 0.0	 1	    1.01780	  -14.11031	 66.0	 3	    1.06000	    0.94000;
	205	 1	 0.00	 -5.00	 0.0	 0.0	 1	    1.02882	  -14.98823	 66.0	 3	    1.06000	    0.94000;
	206	 1	 13.57	 2.00	 0.0	 0.0	 1	    1.03943	  -19.26100	 66.0	 3	    1.06000	    0.94000;
	207	 1	 -21.00	 -14.20	 0.0	 0.0	 1	    1.05109	  -20.41564	 66.0	 1	    1.06000	    0.94000;
	208	 1	 7.92	 2.00	 0.0	 0.0	 1	    1.03892	  -15.86714	 66.0	 3	    1.06000	    0.94000;
	209	 1	 42.97	 13.00	 0.0	 0.0	 1	    1.04562	  -15.41156	 66.0	 3	    1.06000	    0.94000;
	210	 1	 0.00	 0.00	 0.0	 0.0	 1	    1.02238	  -12.88268	 115.0	 3	    1.06000	    0.94000;
	211	 1	 108.55	 7.00	 0.0	 0.0	 1	    1.04067	   -8.51053	 115.0	 3	    1.06000	    0.94000;
	212	 1	 0.00	 0.00	 0.0	 0.0	 1	    1.04905	   -5.66503	 138.0	 3	    1.06000	    0.94000;
	213	 2	 0.00	 0.00	 0.0	 0.0	 1	    1.06000	    8.11549	 16.5	 3	    1.06000	    0.94000;
	214	 1	 24.88	 16.00	 0.0	 0.0	 1	    1.05074	    2.22914	 138.0	 3	    1.06000	    0.94000;
	215	 1	 53.14	 26.00	 0.0	 0.0	 1	    1.03434	    0.65209	 138.0	 3	    1.06000	    0.94000;
	216	 1	 199.01	 105.00	 0.0	 0.0	 1	    1.01356	    1.30725	 138.0	 3	    1.06000	    0.94000;
	217	 1	 113.07	 75.00	 0.0	 0.0	 1	    1.03502	    7.55890	 138.0	 3	    1.06000	    0.94000;
	218	 1	 148.13	 96.00	 0.0	 0.0	 1	    1.01830	    8.47634	 138.0	 3	    1.06000	    0.94000;
	219	 1	 0.00	 0.00	 0.0	 0.0	 1	    1.06000	    6.87979	 345.0	 3	    1.06000	    0.94000;
	220	 2	 322.26	 100.00	 0.0	 0.0	 1	    1.03893	   15.60863	 138.0	 3	    1.06000	    0.94000;
	221	 2	 193.35	 70.00	 0.0	 0.0	 1	    1.06000	    2.26567	 138.0	 3	    1.06000	    0.94000;
	222	 2	 370.88	 188.00	 0.0	 0.0	 1	    1.05086	   15.91266	 20.0	 3	    1.06000	    0.94000;
	223	 1	 483.95	 232.00	 0.0	 0.0	 1	    1.05427	    1.87364	 138.0	 3	    1.06000	    0.94000;
	224	 1	 195.62	 99.00	 0.0	 0.0	 1	    1.03174	    0.13921	 230.0	 3	    1.06000	    0.94000;
	225	 1	 463.60	 40.00	 0.0	 0.0	 1	    0.95284	  -15.90691	 230.0	 3	    1.06000	    0.94000;
	226	 1	 0.00	 0.00	 0.0	 0.0	 1	    1.04549	    2.07324	 230.0	 3	    1.06000	    0.94000;
	227	 2	 608.33	 369.00	 0.0	 0.0	 1	    1.06000	   -7.68006	 27.0	 3	    1.06000	    0.94000;
	228	 1	 252.15	 148.00	 0.0	 0.0	 1	    1.01767	   16.54411	 138.0	 3	    1.06000	    0.94000;
	229	 1	 108.55	 46.00	 0.0	 0.0	 1	    1.03108	   17.46194	 138.0	 3	    1.06000	    0.94000;
	230	 2	 0.00	 0.00	 0.0	 0.0	 1	    1.06000	   28.61003	 20.0	 3	    1.06000	    0.94000;
	231	 1	 179.79	 107.00	 0.0	 -300.0	 1	    1.05776	    7.20385	 345.0	 3	    1.06000	    0.94000;
	232	 1	 506.57	 143.00	 0.0	 0.0	 1	    1.05029	    7.09148	 138.0	 3	    1.06000	    0.94000;
	233	 2	 456.81	 212.00	 0.0	 0.0	 1	    1.06000	   18.99053	 66.0	 3	    1.06000	    0.94000;
	234	 1	 646.78	 244.00	 0.0	 0.0	 1	    0.99367	   20.29260	 138.0	 3	    1.06000	    0.94000;
	235	 1	 304.17	 157.00	 0.0	 0.0	 1	    1.05746	   19.46043	 138.0	 3	    1.06000	    0.94000;
	236	 2	 0.00	 0.00	 0.0	 0.0	 1	    0.94000	   39.51235	 20.0	 3	    1.06000	    0.94000;
	237	 1	 0.00	 0.00	 0.0	 0.0	 1	    1.05906	    7.43602	 345.0	 3	    1.06000	    0.94000;
	238	 2	 288.34	 149.00	 0.0	 -150.0	 1	    1.06000	   19.49890	 138.0	 3	    1.06000	    0.94000;
	239	 2	 0.00	 0.00	 0.0	 0.0	 1	    1.04493	   23.96678	 138.0	 3	    1.06000	    0.94000;
	240	 1	 0.00	 0.00	 0.0	 -140.0	 1	    1.02803	    8.05144	 230.0	 3	    1.06000	    0.94000;
	241	 2	 0.00	 0.00	 0.0	 0.0	 1	    1.04038	    8.94340	 20.0	 3	    1.06000	    0.94000;
	242	 2	 0.00	 0.00	 0.0	 0.0	 1	    1.06000	    1.55947	 138.0	 3	    1.06000	    0.94000;
	243	 2	 9.05	 3.00	 0.0	 0.0	 1	    1.06000	    8.05668	 66.0	 3	    1.06000	    0.94000;
	244	 1	 0.00	 0.00	 0.0	 0.0	 1	    1.03947	    5.56302	 66.0	 3	    1.06000	    0.94000;
	245	 1	 68.97	 30.00	 0.0	 0.0	 1	    1.02405	    1.11828	 66.0	 3	    1.06000	    0.94000;
	246	 1	 87.07	 33.00	 0.0	 0.0	 1	    1.01198	    1.50592	 66.0	 3	    1.06000	    0.94000;
	247	 1	 68.97	 30.00	 0.0	 0.0	 1	    1.02413	   -1.70249	 66.0	 3	    1.06000	    0.94000;
	248	 1	 32.79	 14.00	 0.0	 45.6	 1	    1.01762	   -7.95453	 66.0	 3	    1.06000	    0.94000;
	249	 1	 32.79	 14.00	 0.0	 0.0	 1	    1.01565	   -8.55646	 66.0	 3	    1.06000	    0.94000;
	250	 1	 -23.00	 -17.00	 0.0	 0.0	 1	    1.05840	   -6.83785	 66.0	 3	    1.06000	    0.94000;
	281	 1	 -33.10	 -29.40	 0.0	 0.0	 1	    1.02937	    8.12365	 230.0	 3	    1.06000	    0.94000;
	319	 1	 115.80	 -24.00	 0.0	 0.0	 1	    1.04574	   -2.10317	 230.0	 1	    1.06000	    0.94000;
	320	 1	 2.40	 -12.60	 0.0	 0.0	 1	    1.02732	   -3.17712	 115.0	 1	    1.06000	    0.94000;
	322	 1	 2.40	 -3.90	 0.0	 0.0	 1	    1.06000	  -20.04666	 115.0	 1	    1.06000	    0.94000;
	323	 1	 -14.90	 26.50	 0.0	 0.0	 1	    1.03455	  -17.37052	 230.0	 1	    1.06000	    0.94000;
	324	 1	 24.70	 -1.20	 0.0	 0.0	 1	    1.04652	  -19.58049	 115.0	 1	    1.06000	    0.94000;
	526	 1	 145.30	 -34.90	 0.0	 0.0	 1	    1.04574	  -39.76186	 115.0	 1	    1.06000	    0.94000;
	528	 1	 28.10	 -20.50	 0.0	 0.0	 1	    1.04817	  -19.72731	 115.0	 1	    1.06000	    0.94000;
	531	 1	 15.83	 2.50	 0.0	 0.0	 1	    1.02865	  -14.09414	 115.0	 1	    1.06000	    0.94000;
	552	 1	 -11.10	 -1.40	 0.0	 0.0	 1	    1.06000	   -8.87207	 115.0	 1	    1.06000	    0.94000;
	562	 1	 57.10	 17.40	 0.0	 0.0	 1	    1.02850	  -16.64936	 230.0	 1	    1.06000	    0.94000;
	609	 1	 33.47	 0.60	 0.0	 0.0	 1	    1.01632	  -14.14359	 115.0	 1	    1.06000	    0.94000;
	664	 1	 -113.70	 76.70	 0.0	 0.0	 1	    1.04005	    5.25918	 345.0	 3	    1.06000	    0.94000;
	1190	 1	 113.42	 29.17	 0.0	 0.0	 1	    1.02551	  -22.86994	 86.0	 2	    1.06000	    0.94000;
	1200	 1	 -100.00	 34.17	 0.0	 0.0	 1	    1.04980	  -31.82830	 86.0	 2	    1.06000	    0.94000;
	1201	 1	 0.00	 0.00	 0.0	 0.0	 1	    1.03227	  -41.24151	 115.0	 2	    1.06000	    0.94000;
	2040	 1	 0.00	 0.00	 0.0	 0.0	 1	    1.00507	   -3.08396	 115.0	 3	    1.06000	    0.94000;
	7001	 2	 0.00	 0.00	 0.0	 0.0	 1	    1.06000	    7.68613	 13.8	 1	    1.06000	    0.94000;
	7002	 2	 0.00	 0.00	 0.0	 0.0	 1	    1.06000	    9.71552	 13.8	 1	    1.06000	    0.94000;
	7003	 2	 0.00	 0.00	 0.0	 0.0	 1	    1.06000	    8.11235	 13.8	 1	    1.06000	    0.94000;
	7011	 2	 0.00	 0.00	 0.0	 0.0	 1	    1.06000	    0.93159	 13.8	 1	    1.06000	    0.94000;
	7012	 2	 0.00	 0.00	 0.0	 0.0	 1	    1.06000	   13.30892	 13.8	 1	    1.06000	    0.94000;
	7017	 2	 0.00	 0.00	 0.0	 0.0	 1	    0.94000	  -27.91816	 13.8	 1	    1.06000	    0.94000;
	7023	 2	 0.00	 0.00	 0.0	 0.0	 1	    1.04284	   10.19141	 13.8	 1	    1.06000	    0.94000;
	7024	 2	 0.00	 0.00	 0.0	 0.0	 1	    1.06000	    7.14810	 13.8	 1	    1.06000	    0.94000;
	7039	 2	 0.00	 0.00	 0.0	 0.0	 1	    1.03469	    5.79900	 20.0	 1	    1.06000	    0.94000;
	7044	 2	 0.00	 0.00	 0.0	 0.0	 1	    1.04478	   -7.42833	 13.8	 1	    1.06000	    0.94000;
	7049	 3	 0.00	 0.00	 0.0	 0.0	 1	    1.06000	    0.00000	 13.8	 1	    1.06000	    0.94000;
	7055	 2	 0.00	 0.00	 0.0	 0.0	 1	    1.06000	  -18.17501	 13.8	 1	    1.06000	    0.94000;
	7057	 2	 0.00	 0.00	 0.0	 0.0	 1	    1.03857	  -18.32371	 13.8	 1	    1.06000	    0.94000;
	7061	 2	 0.00	 0.00	 0.0	 0.0	 1	    1.06000	  -23.34305	 13.8	 1	    1.06000	    0.94000;
	7062	 2	 0.00	 0.00	 0.0	 0.0	 1	    1.02645	   -2.67027	 13.8	 1	    1.06000	    0.94000;
	7071	 2	 0.00	 0.00	 0.0	 0.0	 1	    1.06000	   -4.63134	 13.8	 1	    1.06000	    0.94000;
	7130	 2	 0.00	 0.00	 0.0	 0.0	 1	    1.06000	   -9.29634	 13.8	 2	    1.06000	    0.94000;
	7139	 2	 0.00	 0.00	 0.0	 0.0	 1	    1.06000	  -14.93405	 13.8	 2	    1.06000	    0.94000;
	7166	 2	 0.00	 0.00	 0.0	 0.0	 1	    1.04210	   17.65472	 13.8	 2	    1.06000	    0.94000;
	9001	 1	 0.00	 0.00	 0.0	 0.0	 1	    1.03103	  -11.46280	 115.0	 9	    1.06000	    0.94000;
	9002	 2	 4.20	 0.00	 0.0	 0.0	 1	    1.04628	  -19.41749	 6.6	 9	    1.06000	    0.94000;
	9003	 1	 3.06	 0.94	 0.14	 2.4	 1	    0.99843	  -20.68397	 6.6	 9	    1.06000	    0.94000;
	9004	 1	 0.97	 0.28	 0.0	 0.0	 1	    0.99135	  -20.84557	 6.6	 9	    1.06000	    0.94000;
	9005	 1	 0.00	 0.00	 0.0	 0.0	 1	    1.03266	  -11.25736	 115.0	 9	    1.06000	    0.94000;
	9006	 1	 0.00	 0.00	 0.0	 0.0	 1	    1.01941	  -18.20215	 6.6	 9	    1.06000	    0.94000;
	9007	 1	 0.00	 0.00	 0.0	 0.0	 1	    1.00707	  -19.58573	 6.6	 9	    1.06000	    0.94000;
	9012	 1	 0.00	 0.00	 0.0	 0.0	 1	    1.04596	  -17.75917	 6.6	 9	    1.06000	    0.94000;
	9021	 1	 5.37	 1.56	 0.0	 0.0	 1	    1.04028	  -19.65176	 6.6	 9	    1.06000	    0.94000;
	9022	 1	 1.73	 0.53	 0.08	 0.0	 1	    1.01659	  -22.29006	 0.6	 9	    1.06000	    0.94000;
	9023	 1	 0.00	 0.00	 0.0	 0.0	 1	    1.02558	  -19.99318	 6.6	 9	    1.06000	    0.94000;
	9024	 1	 1.53	 0.47	 0.07	 0.0	 1	    1.02241	  -22.05580	 0.6	 9	    1.06000	    0.94000;
	9025	 1	 0.51	 0.16	 0.02	 0.0	 1	    1.01570	  -21.08566	 0.6	 9	    1.06000	    0.94000;
	9026	 1	 0.51	 0.16	 0.02	 0.0	 1	    1.01655	  -20.99381	 0.6	 9	    1.06000	    0.94000;
	9031	 1	 2.08	 0.64	 0.1	 0.0	 1	    0.94461	  -26.56537	 0.6	 9	    1.06000	    0.94000;
	9032	 1	 1.57	 0.48	 0.07	 0.0	 1	    0.95765	  -25.25073	 0.6	 9	    1.06000	    0.94000;
	9033	 1	 2.14	 0.65	 0.1	 0.0	 1	    0.94141	  -26.92467	 0.6	 9	    1.06000	    0.94000;
	9034	 1	 1.75	 0.54	 0.08	 1.72	 1	    1.01253	  -22.21882	 0.6	 9	    1.06000	    0.94000;
	9035	 1	 1.88	 0.58	 0.09	 0.0	 1	    0.96429	  -24.53893	 0.6	 9	    1.06000	    0.94000;
	9036	 1	 3.43	 1.00	 0.0	 0.0	 1	    0.97418	  -23.97498	 2.3	 9	    1.06000	    0.94000;
	9037	 1	 2.10	 0.64	 0.1	 0.0	 1	    0.97125	  -23.87365	 0.6	 9	    1.06000	    0.94000;
	9038	 1	 2.92	 0.89	 0.14	 0.0	 1	    0.95246	  -25.90109	 0.6	 9	    1.06000	    0.94000;
	9041	 1	 1.14	 0.35	 0.05	 0.0	 1	    0.97770	  -22.49453	 0.6	 9	    1.06000	    0.94000;
	9042	 1	 0.92	 0.28	 0.04	 0.0	 1	    0.96367	  -23.79960	 0.6	 9	    1.06000	    0.94000;
	9043	 1	 1.81	 0.52	 0.0	 0.0	 1	    0.97896	  -22.61370	 2.3	 9	    1.06000	    0.94000;
	9044	 1	 0.00	 0.00	 0.0	 0.0	 1	    0.99373	  -20.79774	 6.6	 9	    1.06000	    0.94000;
	9051	 2	 35.81	 0.00	 0.0	 0.0	 1	    1.06000	  -18.81686	 13.8	 9	    1.06000	    0.94000;
	9052	 1	 33.92	 23.00	 0.0	 0.0	 1	    1.00122	  -17.69923	 13.8	 9	    1.06000	    0.94000;
	9053	 2	 26.48	 0.00	 0.0	 0.0	 1	    1.01863	  -17.40699	 13.8	 9	    1.06000	    0.94000;
	9054	 2	 0.00	 0.00	 0.0	 0.0	 1	    1.06000	    3.75863	 13.8	 9	    1.06000	    0.94000;
	9055	 2	 0.00	 0.00	 0.0	 0.0	 1	    1.06000	    3.90390	 13.8	 9	    1.06000	    0.94000;
	9071	 1	 1.15	 0.35	 0.05	 0.0	 1	    0.99066	  -21.54043	 0.6	 9	    1.06000	    0.94000;
	9072	 1	 1.15	 0.35	 0.05	 0.0	 1	    0.99585	  -20.93400	 0.6	 9	    1.06000	    0.94000;
	9121	 1	 4.30	 1.25	 0.0	 0.0	 1	    1.02324	  -19.88182	 6.6	 9	    1.06000	    0.94000;
	9533	 1	 1.35	 0.41	 0.1	 0.0	 1	    1.06000	  -17.96473	 2.3	 9	    1.06000	    0.94000;
];

%% generator data
%	bus	Pg	Qg	Qmax	Qmin	Vg	mBase	status	Pmax	Pmin	Pc1	Pc2	Qc1min	Qc1max	Qc2min	Qc2max	ramp_agc	ramp_10	ramp_30	ramp_q	apf
mpc.gen = [
	8	 0.0	 231.433	 289.2	 -289.2	 1.06	 100.0	 1	 0	 0.0	 0.0	 0.0	 0.0	 0.0	 0.0	 0.0	 0.0	 0.0	 0.0	 0.0	 0.0; % SYNC
	10	 0.0	 20.0	 20.0	 -20.0	 1.05124	 100.0	 1	 0	 0.0	 0.0	 0.0	 0.0	 0.0	 0.0	 0.0	 0.0	 0.0	 0.0	 0.0	 0.0; % SYNC
	20	 0.0	 271.309	 310.8	 -310.8	 1.06	 100.0	 1	 0	 0.0	 0.0	 0.0	 0.0	 0.0	 0.0	 0.0	 0.0	 0.0	 0.0	 0.0	 0.0; % SYNC
	63	 0.0	 79.2	 79.2	 -79.2	 1.0525	 100.0	 1	 0	 0.0	 0.0	 0.0	 0.0	 0.0	 0.0	 0.0	 0.0	 0.0	 0.0	 0.0	 0.0; % SYNC
	76	 0.0	 218.4	 218.4	 -218.4	 1.04451	 100.0	 1	 0	 0.0	 0.0	 0.0	 0.0	 0.0	 0.0	 0.0	 0.0	 0.0	 0.0	 0.0	 0.0; % SYNC
	84	 502.0	 49.501	 251.0	 -251.0	 1.04456	 100.0	 1	 502	 0.0	 0.0	 0.0	 0.0	 0.0	 0.0	 0.0	 0.0	 0.0	 0.0	 0.0	 0.0; % COW
	91	 0.0	 55.544	 93.0	 -70.0	 1.06	 100.0	 1	 140	 0.0	 0.0	 0.0	 0.0	 0.0	 0.0	 0.0	 0.0	 0.0	 0.0	 0.0	 0.0; % PEL
	92	 95.666	 25.222	 153.0	 -153.0	 1.06	 100.0	 1	 291	 0.0	 0.0	 0.0	 0.0	 0.0	 0.0	 0.0	 0.0	 0.0	 0.0	 0.0	 0.0; % NG
	98	 0.0	 29.113	 84.0	 -84.0	 1.05401	 100.0	 1	 168	 0.0	 0.0	 0.0	 0.0	 0.0	 0.0	 0.0	 0.0	 0.0	 0.0	 0.0	 0.0; % NG