%%%%%%%%%%%%%%%%%%%%%%%%%%%%%%%%%%%%%%%%%%%%%%%%%%%%%%%%%%%%%%%%%%%%%%%%%%%
%%%%                                                                  %%%%%
%%%%    IEEE PES Power Grid Library - Optimal Power Flow - v19.05     %%%%%
%%%%          (https://github.com/power-grid-lib/pglib-opf)           %%%%%
%%%%             Benchmark Group - Active Power Increase              %%%%%
%%%%                         10 - May - 2019                          %%%%%
%%%%                                                                  %%%%%
%%%%%%%%%%%%%%%%%%%%%%%%%%%%%%%%%%%%%%%%%%%%%%%%%%%%%%%%%%%%%%%%%%%%%%%%%%%
function mpc = pglib_opf_case240_pserc__api
mpc.version = '2';
mpc.baseMVA = 100.0;

%% bus data
%	bus_i	type	Pd	Qd	Gs	Bs	area	Vm	Va	baseKV	zone	Vmax	Vmin
mpc.bus = [
	1001	 1	 0.0	 0.0	 0.0	 0.0	 10	    1.00000	    0.00000	 500.0	 1	    1.10000	    0.90000;
	1002	 1	 226.84	 -37.47	 0.0	 0.0	 10	    1.00000	    0.00000	 345.0	 1	    1.10000	    0.90000;
	1003	 1	 2825.92	 366.86	 0.0	 0.0	 10	    1.00000	    0.00000	 230.0	 1	    1.10000	    0.90000;
	1004	 1	 1362.16	 5.52	 0.0	 0.0	 10	    1.00000	    0.00000	 345.0	 1	    1.10000	    0.90000;
	1032	 2	 0.0	 0.0	 0.0	 0.0	 10	    1.00000	    0.00000	 20.0	 1	    1.10000	    0.90000;
	1034	 2	 0.0	 0.0	 0.0	 0.0	 10	    1.00000	    0.00000	 20.0	 1	    1.10000	    0.90000;
	1101	 1	 4527.37	 -137.04	 0.0	 0.0	 10	    1.00000	    0.00000	 500.0	 1	    1.10000	    0.90000;
	1102	 1	 231.56	 23.00	 0.0	 0.0	 10	    1.00000	    0.00000	 345.0	 1	    1.10000	    0.90000;
	1131	 2	 0.0	 0.0	 0.0	 0.0	 10	    1.00000	    0.00000	 20.0	 1	    1.10000	    0.90000;
	1201	 1	 166.99	 -2.01	 0.0	 0.0	 10	    1.00000	    0.00000	 500.0	 1	    1.10000	    0.90000;
	1202	 1	 1149.11	 287.13	 0.0	 0.0	 10	    1.00000	    0.00000	 500.0	 1	    1.10000	    0.90000;
	1232	 2	 0.0	 0.0	 0.0	 0.0	 10	    1.00000	    0.00000	 20.0	 1	    1.10000	    0.90000;
	1301	 1	 3549.63	 352.83	 0.0	 0.0	 10	    1.00000	    0.00000	 500.0	 1	    1.10000	    0.90000;
	1302	 1	 23.04	 2.30	 0.0	 0.0	 10	    1.00000	    0.00000	 500.0	 1	    1.10000	    0.90000;
	1303	 1	 8182.71	 813.35	 0.0	 0.0	 10	    1.00000	    0.00000	 345.0	 1	    1.10000	    0.90000;
	1331	 2	 0.0	 0.0	 0.0	 0.0	 10	    1.00000	    0.00000	 20.0	 1	    1.10000	    0.90000;
	1333	 2	 0.0	 0.0	 0.0	 0.0	 10	    1.00000	    0.00000	 20.0	 1	    1.10000	    0.90000;
	1401	 1	 8576.94	 1524.59	 0.0	 0.0	 10	    1.00000	    0.00000	 500.0	 1	    1.10000	    0.90000;
	1402	 1	 5366.63	 -600.16	 0.0	 0.0	 10	    1.00000	    0.00000	 500.0	 1	    1.10000	    0.90000;
	1403	 1	 0.0	 0.0	 0.0	 0.0	 10	    1.00000	    0.00000	 230.0	 1	    1.10000	    0.90000;
	1431	 2	 0.0	 0.0	 0.0	 0.0	 10	    1.00000	    0.00000	 20.0	 1	    1.10000	    0.90000;
	2000	 1	 2896.61	 287.92	 0.0	 0.0	 20	    1.00000	    0.00000	 230.0	 1	    1.10000	    0.90000;
	2030	 2	 0.0	 0.0	 0.0	 0.0	 20	    1.00000	    0.00000	 20.0	 1	    1.10000	    0.90000;
	2100	 1	 368.97	 54.83	 0.0	 0.0	 21	    1.00000	    0.00000	 230.0	 1	    1.10000	    0.90000;
	2130	 2	 0.0	 0.0	 0.0	 0.0	 21	    1.00000	    0.00000	 20.0	 1	    1.10000	    0.90000;
	2201	 1	 0.0	 0.0	 0.0	 0.0	 22	    1.00000	    0.00000	 500.0	 1	    1.10000	    0.90000;
	2202	 1	 2028.83	 268.56	 0.0	 0.0	 22	    1.00000	    0.00000	 230.0	 1	    1.10000	    0.90000;
	2203	 1	 2242.23	 278.27	 0.0	 0.0	 22	    1.00000	    0.00000	 230.0	 1	    1.10000	    0.90000;
	2233	 2	 0.0	 0.0	 0.0	 0.0	 22	    1.00000	    0.00000	 20.0	 1	    1.10000	    0.90000;
	2301	 1	 0.0	 0.0	 0.0	 0.0	 22	    1.00000	    0.00000	 500.0	 1	    1.10000	    0.90000;
	2302	 1	 0.0	 0.0	 0.0	 0.0	 22	    1.00000	    0.00000	 230.0	 1	    1.10000	    0.90000;
	2332	 2	 0.0	 0.0	 0.0	 0.0	 22	    1.00000	    0.00000	 20.0	 1	    1.10000	    0.90000;
	2400	 1	 1106.70	 76.66	 0.0	 0.0	 24	    1.00000	    0.00000	 500.0	 1	    1.10000	    0.90000;
	2401	 1	 1157.97	 105.21	 0.0	 0.0	 24	    1.00000	    0.00000	 500.0	 1	    1.10000	    0.90000;
	2402	 1	 1417.37	 81.98	 0.0	 0.0	 24	    1.00000	    0.00000	 500.0	 1	    1.10000	    0.90000;
	2403	 1	 1377.98	 38.54	 0.0	 0.0	 24	    1.00000	    0.00000	 500.0	 1	    1.10000	    0.90000;
	2404	 1	 0.0	 0.0	 0.0	 0.0	 24	    1.00000	    0.00000	 500.0	 1	    1.10000	    0.90000;
	2405	 1	 1082.28	 22.90	 0.0	 0.0	 24	    1.00000	    0.00000	 230.0	 1	    1.10000	    0.90000;
	2406	 1	 737.40	 -40.75	 0.0	 0.0	 24	    1.00000	    0.00000	 230.0	 1	    1.10000	    0.90000;
	2407	 1	 1732.77	 -36.53	 0.0	 0.0	 24	    1.00000	    0.00000	 230.0	 1	    1.10000	    0.90000;
	2408	 1	 1743.28	 -72.62	 0.0	 0.0	 24	    1.00000	    0.00000	 230.0	 1	    1.10000	    0.90000;
	2409	 1	 1601.78	 -86.70	 0.0	 0.0	 24	    1.00000	    0.00000	 230.0	 1	    1.10000	    0.90000;
	2410	 1	 2069.30	 58.18	 0.0	 0.0	 24	    1.00000	    0.00000	 230.0	 1	    1.10000	    0.90000;
	2411	 1	 1427.35	 75.95	 0.0	 0.0	 24	    1.00000	    0.00000	 230.0	 1	    1.10000	    0.90000;
	2438	 2	 0.0	 0.0	 0.0	 0.0	 24	    1.00000	    0.00000	 20.0	 1	    1.10000	    0.90000;
	2501	 1	 0.0	 0.0	 0.0	 0.0	 25	    1.00000	    0.00000	 500.0	 1	    1.10000	    0.90000;
	2502	 1	 2369.15	 -91.91	 0.0	 0.0	 25	    1.00000	    0.00000	 230.0	 1	    1.10000	    0.90000;
	2503	 1	 2422.51	 201.99	 0.0	 0.0	 25	    1.00000	    0.00000	 230.0	 1	    1.10000	    0.90000;
	2533	 2	 0.0	 0.0	 0.0	 0.0	 25	    1.00000	    0.00000	 20.0	 1	    1.10000	    0.90000;
	2600	 1	 -1863.90	 0.00	 0.0	 0.0	 90	    1.00000	    0.00000	 500.0	 1	    1.10000	    0.90000;
	2601	 1	 0.0	 0.0	 0.0	 0.0	 26	    1.00000	    0.00000	 500.0	 1	    1.10000	    0.90000;
	2602	 1	 130.29	 12.96	 0.0	 0.0	 26	    1.00000	    0.00000	 500.0	 1	    1.10000	    0.90000;
	2603	 1	 0.0	 0.0	 0.0	 0.0	 26	    1.00000	    0.00000	 500.0	 1	    1.10000	    0.90000;
	2604	 1	 2050.78	 0.00	 0.0	 0.0	 90	    1.00000	    0.00000	 345.0	 1	    1.10000	    0.90000;
	2605	 1	 0.0	 0.0	 0.0	 0.0	 26	    1.00000	    0.00000	 287.0	 1	    1.10000	    0.90000;
	2606	 1	 0.0	 0.0	 0.0	 0.0	 26	    1.00000	    0.00000	 287.0	 1	    1.10000	    0.90000;
	2607	 1	 0.0	 0.0	 0.0	 0.0	 26	    1.00000	    0.00000	 287.0	 1	    1.10000	    0.90000;
	2608	 1	 130.29	 12.96	 0.0	 0.0	 26	    1.00000	    0.00000	 230.0	 1	    1.10000	    0.90000;
	2609	 1	 175.89	 26.80	 0.0	 0.0	 26	    1.00000	    0.00000	 230.0	 1	    1.10000	    0.90000;
	2610	 1	 130.29	 12.96	 0.0	 0.0	 26	    1.00000	    0.00000	 230.0	 1	    1.10000	    0.90000;
	2611	 1	 130.29	 12.96	 0.0	 0.0	 26	    1.00000	    0.00000	 230.0	 1	    1.10000	    0.90000;
	2612	 1	 157.65	 24.82	 0.0	 0.0	 26	    1.00000	    0.00000	 230.0	 1	    1.10000	    0.90000;
	2613	 1	 416.93	 64.53	 0.0	 0.0	 26	    1.00000	    0.00000	 230.0	 1	    1.10000	    0.90000;
	2614	 1	 179.80	 27.80	 0.0	 0.0	 26	    1.00000	    0.00000	 230.0	 1	    1.10000	    0.90000;
	2615	 1	 1052.48	 131.15	 0.0	 0.0	 26	    1.00000	    0.00000	 230.0	 1	    1.10000	    0.90000;
	2616	 1	 152.44	 23.83	 0.0	 0.0	 26	    1.00000	    0.00000	 230.0	 1	    1.10000	    0.90000;
	2617	 1	 157.65	 24.82	 0.0	 0.0	 26	    1.00000	    0.00000	 230.0	 1	    1.10000	    0.90000;
	2618	 1	 881.30	 -6.16	 0.0	 0.0	 26	    1.00000	    0.00000	 230.0	 1	    1.10000	    0.90000;
	2619	 1	 -2773.83	 0.00	 0.0	 0.0	 90	    1.00000	    0.00000	 230.0	 1	    1.10000	    0.90000;
	2620	 1	 267.35	 17.47	 0.0	 0.0	 26	    1.00000	    0.00000	 230.0	 1	    1.10000	    0.90000;
	2621	 1	 235.49	 -62.74	 0.0	 0.0	 26	    1.00000	    0.00000	 138.0	 1	    1.10000	    0.90000;
	2630	 2	 0.0	 0.0	 0.0	 0.0	 26	    1.00000	    0.00000	 20.0	 1	    1.10000	    0.90000;
	2631	 2	 0.0	 0.0	 0.0	 0.0	 26	    1.00000	    0.00000	 20.0	 1	    1.10000	    0.90000;
	2634	 2	 0.0	 0.0	 0.0	 0.0	 90	    1.00000	    0.00000	 20.0	 1	    1.10000	    0.90000;
	2637	 2	 0.0	 0.0	 0.0	 0.0	 26	    1.00000	    0.00000	 20.0	 1	    1.10000	    0.90000;
	2638	 2	 0.0	 0.0	 0.0	 0.0	 26	    1.00000	    0.00000	 20.0	 1	    1.10000	    0.90000;
	2901	 1	 0.0	 0.0	 0.0	 0.0	 24	    1.00000	    0.00000	 500.0	 1	    1.10000	    0.90000;
	2902	 1	 0.0	 0.0	 0.0	 0.0	 24	    1.00000	    0.00000	 500.0	 1	    1.10000	    0.90000;
	3101	 1	 447.91	 52.83	 0.0	 0.0	 31	    1.00000	    0.00000	 230.0	 1	    1.10000	    0.90000;
	3102	 1	 209.27	 24.93	 0.0	 0.0	 31	    1.00000	    0.00000	 230.0	 1	    1.10000	    0.90000;
	3103	 1	 550.68	 59.78	 0.0	 0.0	 32	    1.00000	    0.00000	 230.0	 1	    1.10000	    0.90000;
	3104	 1	 406.79	 40.13	 0.0	 0.0	 31	    1.00000	    0.00000	 115.0	 1	    1.10000	    0.90000;
	3105	 1	 314.05	 49.09	 0.0	 0.0	 31	    1.00000	    0.00000	 115.0	 1	    1.10000	    0.90000;
	3133	 2	 0.0	 0.0	 0.0	 0.0	 32	    1.00000	    0.00000	 20.0	 1	    1.10000	    0.90000;
	3135	 2	 0.0	 0.0	 0.0	 0.0	 31	    1.00000	    0.00000	 20.0	 1	    1.10000	    0.90000;
	3201	 1	 606.93	 97.85	 0.0	 0.0	 32	    1.00000	    0.00000	 230.0	 1	    1.10000	    0.90000;
	3202	 1	 769.28	 83.47	 0.0	 0.0	 32	    1.00000	    0.00000	 230.0	 1	    1.10000	    0.90000;
	3203	 1	 862.35	 158.48	 0.0	 0.0	 32	    1.00000	    0.00000	 230.0	 1	    1.10000	    0.90000;
	3204	 1	 877.69	 95.31	 0.0	 0.0	 32	    1.00000	    0.00000	 230.0	 1	    1.10000	    0.90000;
	3205	 1	 716.63	 77.78	 0.0	 0.0	 32	    1.00000	    0.00000	 230.0	 1	    1.10000	    0.90000;
	3234	 2	 0.0	 0.0	 0.0	 0.0	 32	    1.00000	    0.00000	 20.0	 1	    1.10000	    0.90000;
	3301	 1	 0.0	 0.0	 0.0	 0.0	 32	    1.00000	    0.00000	 500.0	 1	    1.10000	    0.90000;
	3302	 1	 453.19	 85.79	 0.0	 0.0	 32	    1.00000	    0.00000	 230.0	 1	    1.10000	    0.90000;
	3303	 1	 820.76	 150.72	 0.0	 0.0	 32	    1.00000	    0.00000	 230.0	 1	    1.10000	    0.90000;
	3304	 1	 700.12	 122.62	 0.0	 0.0	 32	    1.00000	    0.00000	 230.0	 1	    1.10000	    0.90000;
	3305	 1	 564.73	 61.23	 0.0	 0.0	 32	    1.00000	    0.00000	 230.0	 1	    1.10000	    0.90000;
	3333	 2	 0.0	 0.0	 0.0	 0.0	 32	    1.00000	    0.00000	 20.0	 1	    1.10000	    0.90000;
	3401	 1	 731.91	 135.91	 0.0	 0.0	 34	    1.00000	    0.00000	 230.0	 1	    1.10000	    0.90000;
	3402	 1	 0.0	 0.0	 0.0	 0.0	 34	    1.00000	    0.00000	 230.0	 1	    1.10000	    0.90000;
	3403	 1	 677.13	 73.58	 0.0	 0.0	 34	    1.00000	    0.00000	 230.0	 1	    1.10000	    0.90000;
	3404	 1	 575.42	 62.08	 0.0	 0.0	 34	    1.00000	    0.00000	 230.0	 1	    1.10000	    0.90000;
	3405	 1	 589.11	 63.72	 0.0	 0.0	 34	    1.00000	    0.00000	 230.0	 1	    1.10000	    0.90000;
	3432	 2	 0.0	 0.0	 0.0	 0.0	 34	    1.00000	    0.00000	 20.0	 1	    1.10000	    0.90000;
	3433	 2	 0.0	 0.0	 0.0	 0.0	 34	    1.00000	    0.00000	 20.0	 1	    1.10000	    0.90000;
	3501	 1	 820.24	 89.02	 0.0	 0.0	 35	    1.00000	    0.00000	 230.0	 1	    1.10000	    0.90000;
	3531	 2	 0.0	 0.0	 0.0	 0.0	 35	    1.00000	    0.00000	 20.0	 1	    1.10000	    0.90000;
	3601	 1	 137.61	 14.84	 0.0	 0.0	 36	    1.00000	    0.00000	 115.0	 1	    1.10000	    0.90000;
	3631	 2	 0.0	 0.0	 0.0	 0.0	 36	    1.00000	    0.00000	 20.0	 1	    1.10000	    0.90000;
	3701	 1	 416.08	 15.85	 0.0	 0.0	 37	    1.00000	    0.00000	 115.0	 1	    1.10000	    0.90000;
	3731	 2	 0.0	 0.0	 0.0	 0.0	 37	    1.00000	    0.00000	 20.0	 1	    1.10000	    0.90000;
	3801	 1	 250.95	 47.41	 0.0	 0.0	 38	    1.00000	    0.00000	 500.0	 1	    1.10000	    0.90000;
	3802	 1	 0.0	 0.0	 0.0	 0.0	 38	    1.00000	    0.00000	 500.0	 1	    1.10000	    0.90000;
	3803	 1	 0.0	 0.0	 0.0	 0.0	 38	    1.00000	    0.00000	 500.0	 1	    1.10000	    0.90000;
	3804	 1	 293.50	 55.32	 0.0	 0.0	 38	    1.00000	    0.00000	 230.0	 1	    1.10000	    0.90000;
	3805	 1	 655.38	 163.11	 0.0	 0.0	 38	    1.00000	    0.00000	 230.0	 1	    1.10000	    0.90000;
	3806	 1	 380.04	 41.37	 0.0	 0.0	 38	    1.00000	    0.00000	 230.0	 1	    1.10000	    0.90000;
	3831	 2	 0.0	 0.0	 0.0	 0.0	 38	    1.00000	    0.00000	 20.0	 1	    1.10000	    0.90000;
	3835	 2	 0.0	 0.0	 0.0	 0.0	 38	    1.00000	    0.00000	 20.0	 1	    1.10000	    0.90000;
	3836	 2	 0.0	 0.0	 0.0	 0.0	 38	    1.00000	    0.00000	 20.0	 1	    1.10000	    0.90000;
	3891	 1	 0.0	 0.0	 0.0	 0.0	 38	    1.00000	    0.00000	 500.0	 1	    1.10000	    0.90000;
	3892	 1	 0.0	 0.0	 0.0	 0.0	 38	    1.00000	    0.00000	 500.0	 1	    1.10000	    0.90000;
	3893	 1	 0.0	 0.0	 0.0	 0.0	 38	    1.00000	    0.00000	 500.0	 1	    1.10000	    0.90000;
	3894	 1	 0.0	 0.0	 0.0	 0.0	 38	    1.00000	    0.00000	 500.0	 1	    1.10000	    0.90000;
	3895	 1	 0.0	 0.0	 0.0	 0.0	 38	    1.00000	    0.00000	 500.0	 1	    1.10000	    0.90000;
	3896	 1	 0.0	 0.0	 0.0	 0.0	 38	    1.00000	    0.00000	 500.0	 1	    1.10000	    0.90000;
	3897	 1	 0.0	 0.0	 0.0	 0.0	 38	    1.00000	    0.00000	 500.0	 1	    1.10000	    0.90000;
	3901	 1	 0.0	 0.0	 0.0	 0.0	 39	    1.00000	    0.00000	 500.0	 1	    1.10000	    0.90000;
	3902	 1	 200.78	 38.25	 0.0	 0.0	 39	    1.00000	    0.00000	 500.0	 1	    1.10000	    0.90000;
	3903	 1	 279.86	 30.27	 0.0	 0.0	 39	    1.00000	    0.00000	 500.0	 1	    1.10000	    0.90000;
	3904	 1	 0.0	 0.0	 0.0	 0.0	 39	    1.00000	    0.00000	 500.0	 1	    1.10000	    0.90000;
	3905	 1	 0.0	 0.0	 0.0	 0.0	 39	    1.00000	    0.00000	 500.0	 1	    1.10000	    0.90000;
	3906	 1	 0.0	 0.0	 0.0	 0.0	 39	    1.00000	    0.00000	 500.0	 1	    1.10000	    0.90000;
	3907	 1	 605.46	 63.07	 0.0	 0.0	 39	    1.00000	    0.00000	 230.0	 1	    1.10000	    0.90000;
	3908	 1	 262.84	 24.72	 0.0	 0.0	 39	    1.00000	    0.00000	 230.0	 1	    1.10000	    0.90000;
	3909	 1	 224.36	 39.78	 0.0	 0.0	 39	    1.00000	    0.00000	 230.0	 1	    1.10000	    0.90000;
	3910	 1	 317.38	 34.44	 0.0	 0.0	 39	    1.00000	    0.00000	 230.0	 1	    1.10000	    0.90000;
	3911	 1	 305.96	 47.11	 0.0	 0.0	 39	    1.00000	    0.00000	 230.0	 1	    1.10000	    0.90000;
	3912	 1	 174.50	 -0.63	 0.0	 0.0	 39	    1.00000	    0.00000	 230.0	 1	    1.10000	    0.90000;
	3913	 1	 432.48	 43.44	 0.0	 0.0	 39	    1.00000	    0.00000	 230.0	 1	    1.10000	    0.90000;
	3914	 1	 298.89	 52.55	 0.0	 0.0	 39	    1.00000	    0.00000	 230.0	 1	    1.10000	    0.90000;
	3915	 1	 333.94	 53.40	 0.0	 0.0	 39	    1.00000	    0.00000	 230.0	 1	    1.10000	    0.90000;
	3916	 1	 155.00	 0.00	 0.0	 0.0	 39	    1.00000	    0.00000	 230.0	 1	    1.10000	    0.90000;
	3917	 1	 312.59	 43.99	 0.0	 0.0	 39	    1.00000	    0.00000	 230.0	 1	    1.10000	    0.90000;
	3918	 1	 419.01	 75.46	 0.0	 0.0	 39	    1.00000	    0.00000	 230.0	 1	    1.10000	    0.90000;
	3919	 1	 242.14	 24.09	 0.0	 0.0	 39	    1.00000	    0.00000	 230.0	 1	    1.10000	    0.90000;
	3920	 1	 226.38	 23.68	 0.0	 0.0	 39	    1.00000	    0.00000	 230.0	 1	    1.10000	    0.90000;
	3921	 1	 198.02	 34.82	 0.0	 0.0	 39	    1.00000	    0.00000	 230.0	 1	    1.10000	    0.90000;
	3922	 1	 332.61	 31.92	 0.0	 0.0	 39	    1.00000	    0.00000	 230.0	 1	    1.10000	    0.90000;
	3923	 1	 523.71	 67.02	 0.0	 0.0	 39	    1.00000	    0.00000	 230.0	 1	    1.10000	    0.90000;
	3924	 1	 436.34	 47.16	 0.0	 0.0	 39	    1.00000	    0.00000	 230.0	 1	    1.10000	    0.90000;
	3925	 1	 0.0	 0.0	 0.0	 0.0	 39	    1.00000	    0.00000	 115.0	 1	    1.10000	    0.90000;
	3926	 1	 350.86	 16.67	 0.0	 0.0	 39	    1.00000	    0.00000	 115.0	 1	    1.10000	    0.90000;
	3931	 2	 0.0	 0.0	 0.0	 0.0	 39	    1.00000	    0.00000	 20.0	 1	    1.10000	    0.90000;
	3932	 2	 0.0	 0.0	 0.0	 0.0	 39	    1.00000	    0.00000	 20.0	 1	    1.10000	    0.90000;
	3933	 3	 0.0	 0.0	 0.0	 0.0	 39	    1.00000	    0.00000	 20.0	 1	    1.10000	    0.90000;
	4001	 1	 0.0	 0.0	 0.0	 0.0	 40	    1.00000	    0.00000	 500.0	 1	    1.10000	    0.90000;
	4002	 1	 221.37	 22.00	 0.0	 0.0	 40	    1.00000	    0.00000	 500.0	 1	    1.10000	    0.90000;
	4003	 1	 0.0	 0.0	 0.0	 0.0	 40	    1.00000	    0.00000	 500.0	 1	    1.10000	    0.90000;
	4004	 1	 354.93	 35.30	 0.0	 0.0	 40	    1.00000	    0.00000	 500.0	 1	    1.10000	    0.90000;
	4005	 1	 630.08	 157.42	 0.0	 0.0	 40	    1.00000	    0.00000	 500.0	 1	    1.10000	    0.90000;
	4006	 1	 0.0	 0.0	 0.0	 0.0	 40	    1.00000	    0.00000	 500.0	 1	    1.10000	    0.90000;
	4007	 1	 0.0	 0.0	 0.0	 0.0	 40	    1.00000	    0.00000	 500.0	 1	    1.10000	    0.90000;
	4008	 1	 374.21	 37.20	 0.0	 0.0	 40	    1.00000	    0.00000	 345.0	 1	    1.10000	    0.90000;
	4009	 1	 2898.65	 431.39	 0.0	 0.0	 40	    1.00000	    0.00000	 230.0	 1	    1.10000	    0.90000;
	4010	 1	 3133.61	 0.00	 0.0	 0.0	 90	    1.00000	    0.00000	 230.0	 1	    1.10000	    0.90000;
	4031	 2	 0.0	 0.0	 0.0	 0.0	 40	    1.00000	    0.00000	 20.0	 1	    1.10000	    0.90000;
	4035	 2	 0.0	 0.0	 0.0	 0.0	 40	    1.00000	    0.00000	 20.0	 1	    1.10000	    0.90000;
	4039	 2	 0.0	 0.0	 0.0	 0.0	 40	    1.00000	    0.00000	 20.0	 1	    1.10000	    0.90000;
	4090	 1	 0.0	 0.0	 0.0	 0.0	 40	    1.00000	    0.00000	 500.0	 1	    1.10000	    0.90000;
	4091	 1	 0.0	 0.0	 0.0	 0.0	 40	    1.00000	    0.00000	 500.0	 1	    1.10000	    0.90000;
	4092	 1	 0.0	 0.0	 0.0	 0.0	 40	    1.00000	    0.00000	 500.0	 1	    1.10000	    0.90000;
	4093	 1	 0.0	 0.0	 0.0	 0.0	 40	    1.00000	    0.00000	 500.0	 1	    1.10000	    0.90000;
	4094	 1	 0.0	 0.0	 0.0	 0.0	 40	    1.00000	    0.00000	 500.0	 1	    1.10000	    0.90000;
	4095	 1	 0.0	 0.0	 0.0	 0.0	 40	    1.00000	    0.00000	 500.0	 1	    1.10000	    0.90000;
	4096	 1	 0.0	 0.0	 0.0	 0.0	 40	    1.00000	    0.00000	 500.0	 1	    1.10000	    0.90000;
	4097	 1	 0.0	 0.0	 0.0	 0.0	 40	    1.00000	    0.00000	 500.0	 1	    1.10000	    0.90000;
	4101	 1	 1305.83	 129.78	 0.0	 0.0	 40	    1.00000	    0.00000	 500.0	 1	    1.10000	    0.90000;
	4102	 1	 630.78	 68.66	 0.0	 0.0	 40	    1.00000	    0.00000	 500.0	 1	    1.10000	    0.90000;
	4103	 1	 15.26	 1.51	 0.0	 0.0	 40	    1.00000	    0.00000	 500.0	 1	    1.10000	    0.90000;
	4104	 1	 3317.33	 329.74	 0.0	 0.0	 40	    1.00000	    0.00000	 230.0	 1	    1.10000	    0.90000;
	4131	 2	 0.0	 0.0	 0.0	 0.0	 40	    1.00000	    0.00000	 20.0	 1	    1.10000	    0.90000;
	4132	 2	 0.0	 0.0	 0.0	 0.0	 40	    1.00000	    0.00000	 20.0	 1	    1.10000	    0.90000;
	4201	 1	 7562.65	 461.01	 0.0	 0.0	 40	    1.00000	    0.00000	 500.0	 1	    1.10000	    0.90000;
	4202	 1	 5982.03	 594.63	 0.0	 0.0	 40	    1.00000	    0.00000	 500.0	 1	    1.10000	    0.90000;
	4203	 1	 5747.62	 571.33	 0.0	 0.0	 40	    1.00000	    0.00000	 500.0	 1	    1.10000	    0.90000;
	4204	 1	 1331.41	 132.34	 0.0	 0.0	 40	    1.00000	    0.00000	 500.0	 1	    1.10000	    0.90000;
	4231	 2	 0.0	 0.0	 0.0	 0.0	 40	    1.00000	    0.00000	 20.0	 1	    1.10000	    0.90000;
	4232	 2	 0.0	 0.0	 0.0	 0.0	 40	    1.00000	    0.00000	 20.0	 1	    1.10000	    0.90000;
	5001	 1	 9939.84	 1721.38	 0.0	 0.0	 50	    1.00000	    0.00000	 500.0	 1	    1.10000	    0.90000;
	5002	 1	 11816.42	 1174.36	 0.0	 0.0	 50	    1.00000	    0.00000	 500.0	 1	    1.10000	    0.90000;
	5003	 1	 807.38	 80.25	 0.0	 0.0	 50	    1.00000	    0.00000	 230.0	 1	    1.10000	    0.90000;
	5004	 1	 0.0	 0.0	 0.0	 0.0	 50	    1.00000	    0.00000	 230.0	 1	    1.10000	    0.90000;
	5031	 2	 0.0	 0.0	 0.0	 0.0	 50	    1.00000	    0.00000	 20.0	 1	    1.10000	    0.90000;
	5032	 2	 0.0	 0.0	 0.0	 0.0	 50	    1.00000	    0.00000	 20.0	 1	    1.10000	    0.90000;
	6101	 1	 0.0	 0.0	 0.0	 0.0	 61	    1.00000	    0.00000	 500.0	 1	    1.10000	    0.90000;
	6102	 1	 1053.14	 -345.28	 0.0	 0.0	 61	    1.00000	    0.00000	 345.0	 1	    1.10000	    0.90000;
	6103	 1	 514.30	 51.11	 0.0	 0.0	 61	    1.00000	    0.00000	 345.0	 1	    1.10000	    0.90000;
	6104	 1	 2224.39	 221.09	 0.0	 0.0	 61	    1.00000	    0.00000	 230.0	 1	    1.10000	    0.90000;
	6132	 2	 0.0	 0.0	 0.0	 0.0	 61	    1.00000	    0.00000	 20.0	 1	    1.10000	    0.90000;
	6201	 1	 270.11	 26.86	 0.0	 0.0	 60	    1.00000	    0.00000	 500.0	 1	    1.10000	    0.90000;
	6202	 1	 116.43	 13.53	 0.0	 0.0	 60	    1.00000	    0.00000	 500.0	 1	    1.10000	    0.90000;
	6203	 1	 1459.79	 145.09	 0.0	 0.0	 60	    1.00000	    0.00000	 230.0	 1	    1.10000	    0.90000;
	6204	 1	 1573.90	 156.46	 0.0	 0.0	 60	    1.00000	    0.00000	 230.0	 1	    1.10000	    0.90000;
	6205	 1	 642.11	 86.34	 0.0	 0.0	 60	    1.00000	    0.00000	 230.0	 1	    1.10000	    0.90000;
	6231	 2	 0.0	 0.0	 0.0	 0.0	 60	    1.00000	    0.00000	 20.0	 1	    1.10000	    0.90000;
	6235	 2	 0.0	 0.0	 0.0	 0.0	 60	    1.00000	    0.00000	 20.0	 1	    1.10000	    0.90000;
	6301	 1	 677.67	 67.36	 0.0	 0.0	 60	    1.00000	    0.00000	 345.0	 1	    1.10000	    0.90000;
	6302	 1	 776.68	 77.22	 0.0	 0.0	 60	    1.00000	    0.00000	 345.0	 1	    1.10000	    0.90000;
	6303	 1	 979.81	 97.40	 0.0	 0.0	 60	    1.00000	    0.00000	 230.0	 1	    1.10000	    0.90000;
	6304	 1	 0.0	 0.0	 0.0	 0.0	 60	    1.00000	    0.00000	 230.0	 1	    1.10000	    0.90000;
	6305	 1	 79.05	 19.75	 0.0	 0.0	 60	    1.00000	    0.00000	 230.0	 1	    1.10000	    0.90000;
	6333	 2	 0.0	 0.0	 0.0	 0.0	 60	    1.00000	    0.00000	 20.0	 1	    1.10000	    0.90000;
	6335	 2	 0.0	 0.0	 0.0	 0.0	 60	    1.00000	    0.00000	 20.0	 1	    1.10000	    0.90000;
	6401	 1	 2194.75	 218.15	 0.0	 0.0	 64	    1.00000	    0.00000	 345.0	 1	    1.10000	    0.90000;
	6402	 1	 357.63	 35.57	 0.0	 0.0	 64	    1.00000	    0.00000	 115.0	 1	    1.10000	    0.90000;
	6403	 1	 2.89	 0.27	 0.0	 0.0	 64	    1.00000	    0.00000	 345.0	 1	    1.10000	    0.90000;
	6404	 1	 38.03	 3.77	 0.0	 0.0	 64	    1.00000	    0.00000	 345.0	 1	    1.10000	    0.90000;
	6433	 2	 0.0	 0.0	 0.0	 0.0	 64	    1.00000	    0.00000	 20.0	 1	    1.10000	    0.90000;
	6501	 1	 256.63	 64.13	 0.0	 0.0	 60	    1.00000	    0.00000	 345.0	 1	    1.10000	    0.90000;
	6502	 1	 2041.47	 277.67	 0.0	 0.0	 60	    1.00000	    0.00000	 345.0	 1	    1.10000	    0.90000;
	6503	 1	 578.95	 144.60	 0.0	 0.0	 60	    1.00000	    0.00000	 345.0	 1	    1.10000	    0.90000;
	6504	 1	 389.73	 38.73	 0.0	 0.0	 60	    1.00000	    0.00000	 345.0	 1	    1.10000	    0.90000;
	6505	 1	 8.92	 2.23	 0.0	 0.0	 60	    1.00000	    0.00000	 345.0	 1	    1.10000	    0.90000;
	6506	 1	 0.0	 0.0	 0.0	 0.0	 60	    1.00000	    0.00000	 345.0	 1	    1.10000	    0.90000;
	6507	 1	 540.77	 -61.35	 0.0	 0.0	 60	    1.00000	    0.00000	 345.0	 1	    1.10000	    0.90000;
	6508	 1	 173.01	 43.21	 0.0	 0.0	 60	    1.00000	    0.00000	 345.0	 1	    1.10000	    0.90000;
	6509	 1	 11.28	 2.82	 0.0	 0.0	 60	    1.00000	    0.00000	 345.0	 1	    1.10000	    0.90000;
	6510	 1	 1946.02	 -103.88	 0.0	 0.0	 60	    1.00000	    0.00000	 230.0	 1	    1.10000	    0.90000;
	6533	 2	 0.0	 0.0	 0.0	 0.0	 60	    1.00000	    0.00000	 20.0	 1	    1.10000	    0.90000;
	7001	 1	 9782.18	 972.35	 0.0	 0.0	 60	    1.00000	    0.00000	 345.0	 1	    1.10000	    0.90000;
	7002	 1	 2554.83	 -138.07	 0.0	 0.0	 60	    1.00000	    0.00000	 345.0	 1	    1.10000	    0.90000;
	7031	 2	 0.0	 0.0	 0.0	 0.0	 60	    1.00000	    0.00000	 20.0	 1	    1.10000	    0.90000;
	7032	 2	 0.0	 0.0	 0.0	 0.0	 60	    1.00000	    0.00000	 20.0	 1	    1.10000	    0.90000;
	8001	 1	 0.0	 0.0	 0.0	 0.0	 80	    1.00000	    0.00000	 500.0	 1	    1.10000	    0.90000;
	8002	 1	 0.0	 0.0	 0.0	 0.0	 80	    1.00000	    0.00000	 500.0	 1	    1.10000	    0.90000;
	8003	 1	 856.54	 85.14	 0.0	 0.0	 80	    1.00000	    0.00000	 230.0	 1	    1.10000	    0.90000;
	8004	 1	 4971.06	 494.11	 0.0	 0.0	 80	    1.00000	    0.00000	 230.0	 1	    1.10000	    0.90000;
	8005	 1	 1733.93	 172.37	 0.0	 0.0	 80	    1.00000	    0.00000	 230.0	 1	    1.10000	    0.90000;
	8033	 2	 0.0	 0.0	 0.0	 0.0	 80	    1.00000	    0.00000	 20.0	 1	    1.10000	    0.90000;
	8034	 2	 0.0	 0.0	 0.0	 0.0	 80	    1.00000	    0.00000	 20.0	 1	    1.10000	    0.90000;
];

%% generator data
%	bus	Pg	Qg	Qmax	Qmin	Vg	mBase	status	Pmax	Pmin
mpc.gen = [
	1032	 743.5	 0.0	 1030.0	 -1030.0	 1.0	 100.0	 1	 1487	 0.0; % NUC
	1032	 517.5	 0.0	 518.0	 -518.0	 1.0	 100.0	 1	 1035	 0.0; % COW
	1034	 354.5	 0.0	 2294.0	 -2294.0	 1.0	 100.0	 1	 709	 0.0; % COW
	1034	 271.0	 0.0	 918.0	 -918.0	 1.0	 100.0	 1	 542	 0.0; % COW
	1034	 541.0	 0.0	 700.0	 -700.0	 1.0	 100.0	 1	 1082	 0.0; % NUC
	1131	 886.5	 0.0	 887.0	 -887.0	 1.0	 100.0	 1	 1773	 0.0; % COW
	1131	 886.5	 0.0	 1916.0	 -1916.0	 1.0	 100.0	 1	 1773	 0.0; % COW
	1131	 923.5	 0.0	 924.0	 -924.0	 1.0	 100.0	 1	 1847	 0.0; % NG
	1232	 726.5	 0.0	 1208.0	 -1208.0	 1.0	 100.0	 1	 1453	 0.0; % COW
	1232	 571.5	 0.0	 628.0	 -628.0	 1.0	 100.0	 1	 1143	 0.0; % NUC
	1331	 1208.5	 0.0	 1209.0	 -1209.0	 1.0	 100.0	 1	 2417	 0.0; % NUC
	1331	 1239.0	 0.0	 1239.0	 -1239.0	 1.0	 100.0	 1	 2478	 0.0; % COW
	1333	 1474.5	 0.0	 1475.0	 -1475.0	 1.0	 100.0	 1	 2949	 0.0; % COW
	1333	 1438.0	 0.0	 2746.0	 -2746.0	 1.0	 100.0	 1	 2876	 0.0; % NUC
	1333	 1578.5	 0.0	 1579.0	 -1579.0	 1.0	 100.0	 1	 3157	 0.0; % PEL
	1431	 2419.5	 0.0	 3559.0	 -3559.0	 1.0	 100.0	 1	 4839	 0.0; % COW
	1431	 2419.5	 0.0	 2420.0	 -2420.0	 1.0	 100.0	 1	 4839	 0.0; % COW
	1431	 2589.5	 0.0	 2590.0	 -2590.0	 1.0	 100.0	 1	 5179	 0.0; % PEL
	2030	 1045.5	 0.0	 1070.0	 -1070.0	 1.0	 100.0	 1	 2091	 0.0; % COW
	2030	 774.5	 0.0	 775.0	 -775.0	 1.0	 100.0	 1	 1549	 0.0; % COW
	2130	 297.0	 0.0	 297.0	 -297.0	 1.0	 100.0	 1	 594	 0.0; % NG
	2130	 388.0	 0.0	 388.0	 -388.0	 1.0	 100.0	 1	 776	 0.0; % COW
	2130	 297.0	 0.0	 297.0	 -297.0	 1.0	 100.0	 1	 594	 0.0; % NG
	2130	 275.5	 0.0	 276.0	 -276.0	 1.0	 100.0	 1	 551	 0.0; % NG
	2233	 565.5	 0.0	 566.0	 -566.0	 1.0	 100.0	 1	 1131	 0.0; % COW
	2233	 635.0	 0.0	 635.0	 -635.0	 1.0	 100.0	 1	 1270	 0.0; % NG
	2233	 635.0	 0.0	 635.0	 -635.0	 1.0	 100.0	 1	 1270	 0.0; % NG
	2332	 703.5	 0.0	 704.0	 -704.0	 1.0	 100.0	 1	 1407	 0.0; % NUC
	2438	 467.0	 130.5	 728.0	 -467.0	 1.0	 100.0	 1	 934	 0.0; % NG
	2438	 627.0	 367.0	 1902.0	 -1168.0	 1.0	 100.0	 1	 1254	 0.0; % NUC
	2438	 444.5	 624.0	 2301.0	 -1053.0	 1.0	 100.0	 1	 889	 0.0; % COW
	2438	 651.5	 3.5	 659.0	 -652.0	 1.0	 100.0	 1	 1303	 0.0; % COW
	2438	 485.0	 0.0	 485.0	 -485.0	 1.0	 100.0	 1	 970	 0.0; % COW
	2438	 536.5	 4.0	 561.0	 -553.0	 1.0	 100.0	 1	 1073	 0.0; % COW
	2438	 477.5	 380.0	 1910.0	 -1150.0	 1.0	 100.0	 1	 955	 0.0; % COW
	2438	 -503.0	 0.0	 88.8	 -88.8	 1.0	 100.0	 1	 0	 -1006.0; % SYNC
	2533	 2423.5	 0.0	 2424.0	 -2424.0	 1.0	 100.0	 1	 4847	 0.0; % COW
	2630	 560.0	 0.0	 1346.0	 -1346.0	 1.0	 100.0	 1	 1120	 0.0; % COW
	2631	 895.5	 0.0	 896.0	 -896.0	 1.0	 100.0	 1	 1791	 0.0; % NG
	2634	 1969.5	 0.0	 1970.0	 -1970.0	 1.0	 100.0	 1	 3939	 0.0; % COW
	2637	 2350.0	 0.0	 2350.0	 -2350.0	 1.0	 100.0	 1	 4700	 0.0; % NG
	2638	 -516.5	 0.0	 120.0	 -120.0	 1.0	 100.0	 1	 239	 -1272.0; % COW
	3133	 541.5	 0.0	 542.0	 -542.0	 1.0	 100.0	 1	 1083	 0.0; % NG
	3133	 556.5	 0.0	 557.0	 -557.0	 1.0	 100.0	 1	 1113	 0.0; % PEL
	3135	 380.5	 0.0	 381.0	 -381.0	 1.0	 100.0	 1	 761	 0.0; % COW
	3135	 175.5	 0.0	 176.0	 -176.0	 1.0	 100.0	 1	 351	 0.0; % NG
	3234	 646.0	 0.0	 646.0	 -646.0	 1.0	 100.0	 1	 1292	 0.0; % COW
	3234	 498.0	 5.0	 1244.0	 -1234.0	 1.0	 100.0	 1	 996	 0.0; % NG
	3234	 510.0	 0.0	 510.0	 -510.0	 1.0	 100.0	 1	 1020	 0.0; % COW
	3234	 458.5	 0.0	 459.0	 -459.0	 1.0	 100.0	 1	 917	 0.0; % COW
	3333	 486.5	 0.0	 487.0	 -487.0	 1.0	 100.0	 1	 973	 0.0; % COW
	3333	 463.5	 0.0	 464.0	 -464.0	 1.0	 100.0	 1	 927	 0.0; % NG
	3432	 81.5	 0.0	 544.0	 -544.0	 1.0	 100.0	 1	 1087	 -924.0; % NG
	3433	 514.0	 0.0	 514.0	 -514.0	 1.0	 100.0	 1	 1028	 0.0; % COW
	3433	 569.0	 185.0	 939.0	 -569.0	 1.0	 100.0	 1	 1138	 0.0; % COW
	3531	 425.0	 202.5	 1004.0	 -599.0	 1.0	 100.0	 1	 850	 0.0; % COW
	3531	 299.0	 0.0	 299.0	 -299.0	 1.0	 100.0	 1	 598	 0.0; % COW
	3531	 268.5	 0.0	 269.0	 -269.0	 1.0	 100.0	 1	 537	 0.0; % NG
	3631	 168.0	 0.0	 168.0	 -168.0	 1.0	 100.0	 1	 336	 0.0; % NG
	3631	 106.0	 0.0	 106.0	 -106.0	 1.0	 100.0	 1	 212	 0.0; % NG
	3731	 2080.0	 0.0	 2080.0	 -2080.0	 1.0	 100.0	 1	 4160	 0.0; % NG
	3831	 712.5	 97.5	 1175.0	 -980.0	 1.0	 100.0	 1	 1425	 0.0; % COW
	3835	 970.0	 0.0	 970.0	 -970.0	 1.0	 100.0	 1	 1940	 0.0; % COW
	3835	 -255.0	 0.0	 19.2	 -19.2	 1.0	 100.0	 1	 0	 -510.0; % SYNC
	3836	 491.5	 0.0	 492.0	 -492.0	 1.0	 100.0	 1	 983	 0.0; % COW
	3931	 148.5	 1.0	 151.0	 -149.0	 1.0	 100.0	 1	 297	 0.0; % NG
	3931	 461.5	 169.0	 1284.0	 -946.0	 1.0	 100.0	 1	 923	 0.0; % NUC
	3932	 1127.0	 11.5	 1150.0	 -1127.0	 1.0	 100.0	 1	 2254	 0.0; % COW
	3933	 404.5	 -14.7	 405.0	 -434.4	 1.0	 100.0	 1	 809	 0.0; % COW
	3933	 363.5	 0.0	 434.4	 -434.4	 1.0	 100.0	 1	 727	 0.0; % NG
	3933	 919.0	 0.0	 919.0	 -919.0	 1.0	 100.0	 1	 1838	 0.0; % COW
	3933	 547.5	 107.5	 1256.0	 -1041.0	 1.0	 100.0	 1	 1095	 0.0; % COW
	3933	 323.5	 0.0	 434.4	 -434.4	 1.0	 100.0	 1	 647	 0.0; % NG
	3933	 296.0	 0.0	 521.0	 -521.0	 1.0	 100.0	 1	 1041	 -449.0; % NUC
	4039	 873.5	 0.0	 958.8	 -958.8	 1.0	 100.0	 1	 1747	 0.0; % COW
	4039	 848.0	 0.0	 1459.0	 -1459.0	 1.0	 100.0	 1	 1696	 0.0; % COW
	4039	 642.5	 0.0	 958.8	 -958.8	 1.0	 100.0	 1	 1285	 0.0; % NG
	4031	 1300.0	 0.0	 1300.0	 -1300.0	 1.0	 100.0	 1	 2600	 0.0; % COW
	4031	 1353.5	 0.0	 1354.0	 -1354.0	 1.0	 100.0	 1	 2707	 0.0; % NG
	4031	 1300.0	 0.0	 1300.0	 -1300.0	 1.0	 100.0	 1	 2600	 0.0; % COW
	4031	 1353.5	 0.0	 1354.0	 -1354.0	 1.0	 100.0	 1	 2707	 0.0; % NG
	4035	 366.0	 0.0	 721.2	 -721.2	 1.0	 100.0	 1	 732	 0.0; % COW
	4035	 295.5	 0.0	 721.2	 -721.2	 1.0	 100.0	 1	 591	 0.0; % COW
	4035	 465.5	 0.0	 1836.0	 -1836.0	 1.0	 100.0	 1	 931	 0.0; % COW
	4035	 373.5	 0.0	 721.2	 -721.2	 1.0	 100.0	 1	 747	 0.0; % COW
	4131	 655.0	 0.0	 6482.0	 -6482.0	 1.0	 100.0	 1	 1310	 0.0; % COW
	4131	 682.5	 0.0	 683.0	 -683.0	 1.0	 100.0	 1	 1365	 0.0; % NG
	4132	 174.0	 0.0	 1473.0	 -1473.0	 1.0	 100.0	 1	 348	 0.0; % COW
	4132	 66.5	 0.0	 2847.0	 -2847.0	 1.0	 100.0	 1	 133	 0.0; % COW
	4132	 303.5	 0.0	 580.0	 -580.0	 1.0	 100.0	 1	 607	 0.0; % COW
	4132	 125.0	 0.0	 231.0	 -231.0	 1.0	 100.0	 1	 250	 0.0; % NG
	4132	 173.0	 0.0	 173.0	 -173.0	 1.0	 100.0	 1	 346	 0.0; % NG
	4231	 330.5	 0.0	 728.0	 -728.0	 1.0	 100.0	 1	 661	 0.0; % COW
	4231	 318.0	 0.0	 659.0	 -659.0	 1.0	 100.0	 1	 636	 0.0; % COW
	4231	 536.5	 0.0	 1808.0	 -1808.0	 1.0	 100.0	 1	 1073	 0.0; % NUC