%%%%%%%%%%%%%%%%%%%%%%%%%%%%%%%%%%%%%%%%%%%%%%%%%%%%%%%%%%%%%%%%%%%%%%%%%%%
%%%%                                                                  %%%%%
%%%%    IEEE PES Power Grid Library - Optimal Power Flow - v17.07     %%%%%
%%%%          (https://github.com/power-grid-lib/pglib-opf)           %%%%%
%%%%             Benchmark Group - Active Power Increase              %%%%%
%%%%                         27 - June - 2017                         %%%%%
%%%%                                                                  %%%%%
%%%%%%%%%%%%%%%%%%%%%%%%%%%%%%%%%%%%%%%%%%%%%%%%%%%%%%%%%%%%%%%%%%%%%%%%%%%
function mpc = pglib_opf_case1888_rte__api
mpc.version = '2';
mpc.baseMVA = 100.0;

%% bus data
%	bus_i	type	Pd	Qd	Gs	Bs	area	Vm	Va	baseKV	zone	Vmax	Vmin
mpc.bus = [
	1	 1	 5.80	 -5.80	 0.0	 0.0	 1	    1.04423	  -32.64290	 225.0	 1	    1.08889	    0.88889;
	2	 1	 0.00	 0.00	 0.0	 0.0	 1	    1.08186	   -1.78742	 380.0	 1	    1.10263	    1.04841;
	3	 1	 142.50	 -13.40	 0.0	 0.0	 1	    1.04578	  -14.96572	 225.0	 1	    1.08444	    1.00444;
	4	 1	 0.00	 0.00	 0.0	 0.0	 1	    1.09030	   -8.07855	 150.0	 1	    1.10667	    0.90000;
	5	 1	 32.80	 -5.30	 0.0	 0.0	 1	    1.07986	  -11.87693	 225.0	 1	    1.08889	    0.93333;
	6	 1	 64.14	 4.00	 0.0	 0.0	 1	    1.07710	  -12.96940	 225.0	 1	    1.08889	    0.93333;
	7	 1	 0.00	 0.00	 0.0	 0.0	 1	    1.08586	  -10.14285	 380.0	 1	    1.10526	    1.03947;
	8	 1	 0.00	 0.00	 0.0	 0.0	 1	    1.07414	  -10.02607	 380.0	 1	    1.10526	    1.03947;
	9	 1	 0.00	 0.00	 0.0	 0.0	 1	    1.04577	  -32.24436	 225.0	 1	    1.09035	    1.00444;
	10	 1	 237.43	 14.90	 0.0	 0.0	 1	    1.05529	  -20.02158	 225.0	 1	    1.08889	    0.93333;
	11	 1	 40.85	 5.00	 0.0	 0.0	 1	    1.04060	  -35.64370	 225.0	 1	    1.08889	    1.00444;
	12	 1	 62.39	 8.70	 0.0	 0.0	 1	    1.01504	  -34.79823	 225.0	 1	    1.08889	    1.00444;
	13	 1	 112.49	 17.20	 0.0	 0.0	 1	    1.04063	  -35.63407	 225.0	 1	    1.08889	    1.00444;
	14	 1	 36.00	 -4.20	 0.0	 0.0	 1	    1.05312	  -33.41092	 225.0	 1	    1.08252	    0.95000;
	15	 1	 0.00	 0.00	 0.0	 0.0	 1	    1.06415	  -22.72099	 225.0	 1	    1.08889	    1.00444;
	16	 1	 0.00	 0.00	 0.0	 0.0	 1	    1.06420	  -22.71120	 225.0	 1	    1.08889	    1.00444;
	17	 1	 23.70	 -12.40	 0.0	 0.0	 1	    1.04934	  -34.00909	 225.0	 1	    1.08889	    0.88889;
	18	 1	 5.90	 -4.80	 0.0	 0.0	 1	    1.08530	  -22.75466	 225.0	 1	    1.09633	    0.98667;
	19	 1	 54.25	 3.70	 0.0	 0.0	 1	    1.00542	  -32.96058	 225.0	 1	    1.08889	    1.00444;
	20	 1	 11.01	 0.80	 0.0	 0.0	 1	    1.00546	  -32.95662	 225.0	 1	    1.08889	    1.00444;
	21	 1	 9.20	 -29.10	 0.0	 0.0	 1	    1.04922	  -31.03239	 225.0	 1	    1.08889	    1.00444;
	22	 1	 67.70	 -3.60	 0.0	 0.0	 1	    1.08423	  -27.59813	 225.0	 1	    1.08889	    0.98667;
	23	 1	 25.40	 -2.70	 0.0	 0.0	 1	    1.03806	  -38.02390	 225.0	 1	    1.08889	    0.88889;
	25	 1	 102.12	 4.60	 0.0	 0.0	 1	    1.07219	  -19.45185	 225.0	 1	    1.08444	    1.00889;
	27	 1	 114.25	 46.70	 0.0	 0.0	 1	    1.03712	  -11.38097	 225.0	 1	    1.08889	    0.93333;
	28	 1	 168.18	 6.90	 0.0	 0.0	 1	    1.03702	  -30.83120	 225.0	 1	    1.08889	    1.00444;
	29	 1	 0.00	 0.00	 0.0	 0.0	 1	    1.08215	   -1.78367	 380.0	 1	    1.10526	    1.04842;
	30	 1	 0.00	 0.00	 0.0	 0.0	 1	    1.08194	   -1.75359	 380.0	 1	    1.10526	    1.04842;
	31	 1	 34.63	 0.90	 0.0	 0.0	 1	    1.07258	   -5.08148	 225.0	 1	    1.08444	    1.00889;
	33	 1	 109.94	 2.60	 0.0	 0.0	 1	    1.08158	   -6.56232	 225.0	 1	    1.08444	    1.00889;
	34	 1	 80.74	 12.70	 0.0	 0.0	 1	    1.04072	  -35.51455	 225.0	 1	    1.08889	    1.00444;
	35	 1	 27.13	 2.10	 0.0	 0.0	 1	    1.05019	  -12.11852	 150.0	 1	    1.08000	    0.96667;
	36	 1	 60.95	 6.30	 0.0	 0.0	 1	    1.05219	  -35.06850	 225.0	 1	    1.09212	    1.00000;
	37	 1	 0.00	 0.00	 0.0	 0.0	 1	    1.06134	  -31.77189	 380.0	 1	    1.10526	    1.04785;
	38	 1	 142.01	 9.60	 0.0	 0.0	 1	    1.07348	  -27.05994	 225.0	 1	    1.08889	    0.98667;
	2050	 1	 0.00	 0.00	 0.0	 -64.0	 1	    1.04571	  -34.41713	 20.0	 1	    1.50000	    0.80000;
	39	 1	 70.90	 -2.30	 0.0	 0.0	 1	    1.04808	  -33.87810	 225.0	 1	    1.08889	    0.96889;
	40	 1	 136.20	 -10.70	 0.0	 0.0	 1	    1.04528	  -31.41185	 380.0	 1	    1.10526	    1.00000;
	41	 1	 103.08	 17.30	 0.0	 0.0	 1	    1.06131	  -17.37977	 225.0	 1	    1.08889	    0.93333;
	42	 1	 21.38	 3.30	 0.0	 0.0	 1	    1.04355	  -37.61253	 225.0	 1	    1.08889	    0.88889;
	43	 1	 53.13	 4.70	 0.0	 0.0	 1	    1.04330	  -37.68094	 225.0	 1	    1.08889	    0.88889;
	44	 1	 211.60	 -1.30	 0.0	 0.0	 1	    1.05773	  -22.15151	 225.0	 1	    1.08496	    1.00444;
	45	 1	 92.10	 -9.10	 0.0	 0.0	 1	    1.05233	  -32.06063	 225.0	 1	    1.08889	    1.00444;
	46	 2	 0.00	 0.00	 0.0	 0.0	 1	    1.08262	   -5.08015	 150.0	 1	    1.10843	    0.90000;
	47	 1	 0.00	 0.00	 0.0	 0.0	 1	    1.02173	  -36.61322	 225.0	 1	    1.08889	    1.00444;
	48	 1	 0.00	 0.00	 0.0	 0.0	 1	    1.02173	  -36.61322	 225.0	 1	    1.08889	    1.00444;
	49	 1	 101.64	 84.50	 0.0	 -80.0	 1	    1.02173	  -36.61321	 225.0	 1	    1.08889	    1.00444;
	50	 1	 16.59	 6.60	 0.0	 0.0	 1	    1.03575	  -31.30206	 225.0	 1	    1.08889	    1.00444;
	51	 1	 0.00	 0.00	 0.0	 0.0	 1	    1.07382	  -16.95775	 225.0	 1	    1.08889	    1.00000;
	52	 1	 109.62	 16.50	 0.0	 0.0	 1	    1.03565	  -37.69590	 225.0	 1	    1.08889	    0.88889;
	53	 1	 161.48	 15.90	 0.0	 0.0	 1	    1.02410	  -38.65637	 225.0	 1	    1.08889	    0.96889;
	54	 1	 0.00	 0.00	 0.0	 0.0	 1	    1.02545	  -36.07810	 380.0	 1	    1.10526	    1.00000;
	55	 1	 46.11	 10.60	 0.0	 0.0	 1	    1.07616	   -6.27366	 225.0	 1	    1.08444	    1.00889;
	56	 1	 45.00	 2.10	 0.0	 0.0	 1	    1.07635	   -6.27449	 225.0	 1	    1.08444	    1.00889;
	1827	 1	 109.60	 -12.90	 0.0	 0.0	 1	    1.04468	  -28.27210	 225.0	 1	    1.08889	    1.00444;
	57	 1	 27.30	 -10.90	 0.0	 0.0	 1	    1.04408	  -17.19788	 225.0	 1	    1.08945	    0.93333;
	58	 2	 0.00	 0.00	 0.0	 0.0	 1	    1.08071	   -5.34041	 150.0	 1	    1.10862	    0.90000;
	59	 1	 58.72	 20.30	 0.0	 0.0	 1	    1.08397	   -3.34179	 225.0	 1	    1.08444	    1.00889;
	60	 1	 58.24	 30.80	 0.0	 0.0	 1	    1.08381	   -3.33978	 225.0	 1	    1.08444	    1.00889;
	61	 1	 0.00	 0.00	 0.0	 0.0	 1	    1.08445	   -3.55660	 225.0	 1	    1.08889	    0.97778;
	62	 1	 8.40	 -0.30	 0.0	 0.0	 1	    1.05309	  -32.24943	 225.0	 1	    1.08889	    0.88889;
	63	 1	 13.20	 -6.30	 0.0	 0.0	 1	    1.08019	  -11.00824	 225.0	 1	    1.08889	    0.93333;
	64	 1	 21.06	 3.30	 0.0	 0.0	 1	    1.01438	  -35.01163	 225.0	 1	    1.08889	    1.00444;
	65	 1	 36.22	 2.50	 0.0	 0.0	 1	    1.04568	  -32.32255	 225.0	 1	    1.08889	    1.00444;
	66	 1	 11.40	 -9.70	 0.0	 0.0	 1	    1.07416	  -17.40460	 225.0	 1	    1.08889	    1.00000;
	67	 1	 10.20	 -1.30	 0.0	 0.0	 1	    1.04268	  -26.21122	 225.0	 1	    1.08889	    0.98667;
	68	 1	 0.00	 0.00	 0.0	 0.0	 1	    1.04791	  -36.03266	 225.0	 1	    1.08889	    0.88889;
	69	 1	 0.00	 0.00	 0.0	 0.0	 1	    1.04077	  -37.36258	 225.0	 1	    1.08889	    0.88889;
	70	 1	 0.00	 0.00	 0.0	 0.0	 1	    1.05100	  -34.41488	 380.0	 1	    1.10526	    1.01316;
	71	 1	 62.55	 2.80	 0.0	 0.0	 1	    1.00762	  -33.39854	 225.0	 1	    1.08889	    1.00444;
	72	 1	 30.80	 3.30	 0.0	 -80.0	 1	    1.02878	  -34.47001	 225.0	 1	    1.08889	    1.00444;
	73	 1	 0.00	 0.00	 0.0	 0.0	 1	    1.07174	   -5.60827	 225.0	 1	    1.08889	    0.97778;
	74	 1	 0.00	 0.00	 0.0	 0.0	 1	    1.07172	   -5.63374	 225.0	 1	    1.08889	    0.97778;
	75	 1	 210.46	 3.20	 0.0	 0.0	 1	    1.07086	   -6.40788	 225.0	 1	    1.08444	    1.00889;
	76	 1	 0.00	 0.00	 0.0	 0.0	 1	    1.05442	  -17.77153	 225.0	 1	    1.08444	    1.00444;
	77	 1	 0.00	 0.00	 0.0	 0.0	 1	    1.05201	  -12.57429	 380.0	 1	    1.10263	    1.04211;
	78	 1	 94.60	 -1.90	 0.0	 0.0	 1	    1.05431	  -17.82373	 225.0	 1	    1.08444	    1.00444;
	79	 1	 -1.70	 -4.60	 0.0	 0.0	 1	    1.01579	  -34.64829	 225.0	 1	    1.08936	    1.00444;
	80	 1	 3.60	 -7.20	 0.0	 0.0	 1	    1.01578	  -34.65335	 225.0	 1	    1.08936	    1.00444;
	81	 1	 56.49	 10.90	 0.0	 0.0	 1	    1.06973	  -28.79944	 225.0	 1	    1.08889	    0.88889;
	82	 1	 24.09	 0.70	 0.0	 0.0	 1	    1.04991	  -36.37278	 225.0	 1	    1.08124	    0.95000;
	83	 1	 91.59	 18.00	 0.0	 0.0	 1	    1.04538	  -37.67315	 225.0	 1	    1.08889	    0.88889;
	84	 1	 89.90	 -5.80	 0.0	 0.0	 1	    1.04762	  -22.28700	 225.0	 1	    1.08889	    1.00000;
	85	 1	 0.00	 0.00	 0.0	 0.0	 1	    1.03956	  -17.81388	 225.0	 1	    1.08889	    1.00000;
	86	 1	 382.63	 17.50	 0.0	 0.0	 1	    1.07813	  -17.80127	 380.0	 1	    1.10526	    1.05070;
	87	 1	 56.64	 16.00	 0.0	 0.0	 1	    1.04959	  -14.15133	 225.0	 1	    1.08889	    1.00000;
	88	 1	 121.43	 23.00	 0.0	 0.0	 1	    1.06289	  -19.31448	 225.0	 1	    1.08889	    1.00000;
	89	 2	 0.00	 0.00	 0.0	 0.0	 1	    1.07190	    1.06521	 150.0	 1	    1.10000	    0.90000;
	90	 1	 33.99	 12.00	 0.0	 0.0	 1	    1.03054	  -25.10201	 225.0	 1	    1.08889	    0.98667;
	91	 1	 11.20	 -5.20	 0.0	 0.0	 1	    1.02344	   -8.05217	 225.0	 1	    1.08444	    1.00889;
	92	 1	 0.00	 0.00	 0.0	 0.0	 1	    1.05197	  -24.60396	 380.0	 1	    1.10526	    1.04211;
	93	 1	 0.00	 0.00	 0.0	 0.0	 1	    1.05309	  -23.91654	 380.0	 1	    1.10526	    1.04211;
	96	 1	 18.67	 1.30	 0.0	 0.0	 1	    1.04941	  -21.98212	 225.0	 1	    1.08889	    1.00000;
	97	 1	 9.73	 1.40	 0.0	 0.0	 1	    1.05687	  -26.84266	 225.0	 1	    1.08889	    1.00444;
	98	 1	 50.42	 2.60	 0.0	 0.0	 1	    1.05814	   -7.89069	 150.0	 1	    1.10000	    0.90000;
	99	 1	 68.90	 -11.70	 0.0	 0.0	 1	    1.06442	  -22.03993	 225.0	 1	    1.08889	    1.00000;
	100	 2	 0.20	 -0.00	 0.0	 0.0	 1	    1.00428	  -32.78987	 225.0	 1	    1.08294	    0.95000;
	101	 1	 0.00	 0.00	 0.0	 0.0	 1	    1.07961	  -11.98871	 225.0	 1	    1.08889	    0.93333;
	102	 1	 0.00	 0.00	 0.0	 0.0	 1	    1.07465	  -10.02439	 380.0	 1	    1.10526	    1.03947;
	103	 1	 0.00	 0.00	 0.0	 0.0	 1	    1.08624	  -10.13164	 380.0	 1	    1.10526	    1.03947;
	104	 1	 0.00	 0.00	 0.0	 0.0	 1	    1.04090	  -35.61868	 225.0	 1	    1.08889	    1.00444;
	1828	 1	 48.03	 3.80	 0.0	 0.0	 1	    1.02939	  -36.67884	 225.0	 1	    1.08889	    1.00444;
	105	 1	 0.00	 0.00	 0.0	 0.0	 1	    1.06973	  -27.06481	 225.0	 1	    1.08889	    0.98667;
	106	 1	 19.31	 4.50	 0.0	 0.0	 1	    1.04072	  -35.63306	 225.0	 1	    1.08889	    1.00444;
	107	 1	 106.10	 -0.30	 0.0	 0.0	 1	    1.03301	  -21.71783	 225.0	 1	    1.08889	    0.93333;
	108	 1	 0.00	 0.00	 0.0	 0.0	 1	    1.04577	  -17.70610	 380.0	 1	    1.10526	    1.03947;
	109	 1	 69.09	 8.40	 0.0	 0.0	 1	    1.05204	  -20.13468	 225.0	 1	    1.08889	    1.00000;
	110	 1	 33.20	 -7.50	 0.0	 0.0	 1	    1.05393	  -31.56885	 225.0	 1	    1.08986	    1.00444;
	111	 1	 99.50	 -12.40	 0.0	 0.0	 1	    1.06984	  -27.28509	 225.0	 1	    1.09612	    1.00000;
	112	 1	 116.40	 -6.70	 0.0	 0.0	 1	    1.08481	  -24.80829	 225.0	 1	    1.08889	    0.98667;
	113	 1	 104.83	 14.70	 0.0	 0.0	 1	    1.04575	  -32.24195	 225.0	 1	    1.09036	    1.00444;
	114	 1	 171.05	 21.20	 0.0	 0.0	 1	    1.03463	  -38.29277	 225.0	 1	    1.08889	    0.92444;
	115	 1	 56.90	 -2.70	 0.0	 0.0	 1	    1.08204	  -19.24916	 225.0	 1	    1.09614	    0.98667;
	117	 1	 0.00	 0.00	 0.0	 0.0	 1	    1.09010	  -19.51075	 380.0	 1	    1.10526	    1.03947;
	119	 1	 123.60	 -19.80	 0.0	 0.0	 1	    1.02604	  -27.41084	 225.0	 1	    1.08444	    1.00444;
	2051	 1	 0.00	 0.00	 0.0	 -64.0	 1	    1.02095	  -18.55513	 20.0	 1	    1.40000	    0.80000;
	120	 1	 33.30	 -21.30	 0.0	 0.0	 1	    1.07226	  -18.16949	 225.0	 1	    1.08444	    1.00889;
	121	 1	 0.00	 0.00	 0.0	 0.0	 1	    1.07141	  -15.30398	 380.0	 1	    1.10263	    1.02895;
	122	 1	 1.70	 -4.40	 0.0	 0.0	 1	    1.03355	  -21.73430	 225.0	 1	    1.08889	    0.93333;
	123	 1	 223.87	 17.30	 0.0	 0.0	 1	    1.04400	  -11.73846	 225.0	 1	    1.08889	    0.93333;
	124	 1	 33.70	 -1.80	 0.0	 0.0	 1	    1.07697	  -31.12270	 63.0	 1	    1.07937	    0.92063;
	125	 2	 0.00	 0.00	 0.0	 0.0	 1	    1.07476	   -2.41505	 225.0	 1	    1.07476	    0.95000;
	126	 1	 -1.90	 -5.40	 0.0	 0.0	 1	    1.06476	  -10.40650	 225.0	 1	    1.09768	    1.00000;
	127	 1	 0.00	 0.00	 0.0	 0.0	 1	    1.05944	  -10.35814	 380.0	 1	    1.10526	    1.05263;
	128	 1	 0.00	 0.00	 0.0	 0.0	 1	    1.05935	  -10.35265	 380.0	 1	    1.10526	    1.05263;
	129	 1	 0.00	 0.00	 0.0	 0.0	 1	    1.05940	  -10.34897	 380.0	 1	    1.10526	    1.05263;
	130	 1	 0.00	 0.00	 0.0	 0.0	 1	    1.05946	  -10.36792	 380.0	 1	    1.10526	    1.05263;
	131	 1	 0.00	 0.00	 0.0	 0.0	 1	    1.08155	  -19.02593	 225.0	 1	    1.09645	    0.98667;
	132	 1	 0.00	 0.00	 0.0	 0.0	 1	    1.08194	  -19.03736	 225.0	 1	    1.09645	    0.98667;
	133	 1	 0.00	 0.00	 0.0	 0.0	 1	    1.09023	  -19.34412	 380.0	 1	    1.10526	    1.03947;
	134	 1	 77.30	 -10.60	 0.0	 0.0	 1	    1.04850	  -35.22159	 225.0	 1	    1.08889	    0.96889;
	135	 1	 44.84	 3.80	 0.0	 0.0	 1	    1.07214	  -19.40114	 225.0	 1	    1.08444	    1.00889;
	136	 1	 -5.20	 -9.40	 0.0	 0.0	 1	    1.05853	  -26.33999	 380.0	 1	    1.10526	    1.03947;
	137	 1	 169.77	 8.00	 0.0	 0.0	 1	    1.06231	  -10.64762	 225.0	 1	    1.08889	    0.93333;
	138	 1	 0.00	 0.00	 0.0	 0.0	 1	    1.06394	   -6.17280	 380.0	 1	    1.10526	    1.03947;
	140	 1	 113.70	 -8.30	 0.0	 0.0	 1	    1.02415	   -5.10535	 225.0	 1	    1.08444	    1.00889;
	141	 1	 71.16	 0.50	 0.0	 0.0	 1	    1.03321	   -5.39347	 225.0	 1	    1.08444	    1.00889;
	142	 1	 165.20	 -11.80	 0.0	 0.0	 1	    1.03836	  -13.63417	 225.0	 1	    1.08444	    1.00444;
	143	 1	 46.59	 2.10	 0.0	 0.0	 1	    1.06476	  -11.13089	 225.0	 1	    1.08889	    0.93333;
	144	 1	 52.34	 4.40	 0.0	 0.0	 1	    1.06472	  -11.13788	 225.0	 1	    1.08889	    0.93333;
	145	 1	 19.00	 -18.10	 0.0	 0.0	 1	    1.05392	  -31.55258	 225.0	 1	    1.08952	    1.00444;
	146	 1	 0.00	 0.00	 0.0	 0.0	 1	    1.03429	  -16.63551	 225.0	 1	    1.09478	    1.00000;
	147	 1	 0.00	 0.00	 0.0	 0.0	 1	    1.03429	  -16.63548	 225.0	 1	    1.09478	    1.00000;
	148	 1	 59.20	 5.60	 0.0	 0.0	 1	    1.04721	  -22.14426	 225.0	 1	    1.08889	    1.00000;
	149	 1	 20.00	 -3.90	 0.0	 0.0	 1	    1.05698	  -26.72479	 225.0	 1	    1.08889	    1.00444;
	150	 1	 60.79	 1.60	 0.0	 0.0	 1	    1.01329	   -9.10576	 225.0	 1	    1.08444	    1.00889;
	151	 1	 24.80	 -1.80	 0.0	 0.0	 1	    1.04586	  -23.11149	 225.0	 1	    1.08889	    1.00000;
	152	 1	 0.00	 0.00	 0.0	 0.0	 1	    1.07981	   -9.13779	 225.0	 1	    1.08444	    1.00889;
	153	 1	 0.00	 0.00	 0.0	 0.0	 1	    1.07972	   -9.14784	 225.0	 1	    1.08444	    1.00889;
	154	 1	 0.00	 0.00	 0.0	 0.0	 1	    1.07911	   -3.95789	 225.0	 1	    1.08444	    1.00889;
	155	 1	 0.00	 0.00	 0.0	 0.0	 1	    1.07784	   -3.34544	 380.0	 1	    1.10263	    1.02895;
	156	 1	 247.80	 26.50	 0.0	 0.0	 1	    1.04857	  -37.29283	 225.0	 1	    1.08889	    0.88889;
	157	 1	 0.00	 0.00	 0.0	 0.0	 1	    1.06474	  -10.40635	 225.0	 1	    1.09766	    1.00000;
	158	 1	 0.00	 0.00	 0.0	 0.0	 1	    1.05933	  -10.44517	 380.0	 1	    1.10526	    1.05263;
	159	 1	 34.31	 4.40	 0.0	 0.0	 1	    1.04202	  -26.76045	 225.0	 1	    1.08889	    0.98667;
	160	 1	 41.81	 2.10	 0.0	 0.0	 1	    1.03704	  -16.48928	 225.0	 1	    1.08889	    1.00000;
	161	 1	 0.00	 0.00	 0.0	 0.0	 1	    1.03638	  -33.47095	 225.0	 1	    1.08444	    1.00444;
	162	 1	 0.00	 0.00	 0.0	 0.0	 1	    1.03638	  -33.47095	 225.0	 1	    1.08444	    1.00444;
	163	 1	 0.00	 0.00	 0.0	 0.0	 1	    1.03638	  -33.47115	 225.0	 1	    1.08444	    1.00444;
	164	 1	 55.30	 -11.40	 0.0	 0.0	 1	    1.03637	  -33.47092	 225.0	 1	    1.08444	    1.00444;
	165	 1	 0.00	 0.00	 0.0	 0.0	 1	    1.03560	  -10.75253	 225.0	 1	    1.08889	    0.93333;
	166	 1	 47.87	 12.30	 0.0	 0.0	 1	    1.04278	  -15.90918	 225.0	 1	    1.08889	    0.98667;
	2019	 1	 0.00	 0.00	 0.0	 -64.0	 1	    0.94451	  -17.49220	 20.0	 1	    1.40000	    0.90000;
	167	 1	 0.00	 0.00	 0.0	 0.0	 1	    1.02997	  -16.70667	 225.0	 1	    1.08941	    1.00000;
	168	 1	 0.00	 0.00	 0.0	 0.0	 1	    1.05263	  -12.21429	 380.0	 1	    1.10526	    1.05263;
	169	 2	 0.00	 0.00	 0.0	 0.0	 1	    1.09880	   -9.20056	 225.0	 1	    1.10000	    0.90000;
	170	 1	 28.40	 2.60	 0.0	 0.0	 1	    1.04801	  -12.60937	 150.0	 1	    1.08000	    0.96667;
	171	 1	 25.30	 -3.20	 0.0	 0.0	 1	    1.00683	  -32.93012	 225.0	 1	    1.08889	    1.00444;
	172	 1	 -3.70	 -2.00	 0.0	 0.0	 1	    1.00740	  -32.88551	 225.0	 1	    1.08889	    1.00444;
	173	 1	 59.52	 0.70	 0.0	 0.0	 1	    1.03387	  -38.76937	 225.0	 1	    1.08889	    0.88889;
	181	 1	 172.17	 3.90	 0.0	 0.0	 1	    1.04587	  -23.08930	 225.0	 1	    1.08889	    1.00000;
	182	 1	 47.07	 6.80	 0.0	 0.0	 1	    1.08696	  -26.03822	 225.0	 1	    1.08889	    0.98667;
	183	 1	 0.00	 0.00	 0.0	 0.0	 1	    1.07033	   -4.94543	 380.0	 1	    1.10526	    1.03947;
	184	 1	 0.00	 0.00	 0.0	 0.0	 1	    1.06558	   -4.81587	 380.0	 1	    1.10526	    1.03947;
	185	 1	 0.00	 0.00	 0.0	 0.0	 1	    1.06559	   -4.82004	 380.0	 1	    1.10526	    1.03947;
	186	 1	 0.00	 0.00	 0.0	 0.0	 1	    1.07084	   -4.97369	 380.0	 1	    1.10526	    1.03947;
	187	 1	 28.10	 -10.00	 0.0	 0.0	 1	    1.05620	  -32.77110	 225.0	 1	    1.08889	    0.92444;
	188	 1	 -2.00	 -1.10	 0.0	 0.0	 1	    1.07403	  -26.72631	 225.0	 1	    1.08889	    0.98667;
	189	 1	 104.99	 19.10	 0.0	 0.0	 1	    1.03918	  -24.34673	 225.0	 1	    1.08444	    1.00444;
	190	 1	 -2.30	 1.20	 0.0	 0.0	 1	    1.04494	  -19.69159	 380.0	 1	    1.10263	    1.04211;
	191	 1	 -2.30	 1.40	 0.0	 0.0	 1	    1.04504	  -19.69712	 380.0	 1	    1.10263	    1.04211;
	192	 1	 0.00	 0.00	 0.0	 0.0	 1	    1.00710	  -33.63684	 225.0	 1	    1.08889	    1.00444;
	193	 1	 0.00	 0.00	 0.0	 0.0	 1	    1.08252	   -7.64160	 225.0	 1	    1.08889	    0.97778;
	194	 1	 0.00	 0.00	 0.0	 0.0	 1	    1.08252	   -7.64182	 225.0	 1	    1.08889	    0.97778;
	195	 1	 83.60	 -8.60	 0.0	 0.0	 1	    1.04771	  -35.78577	 225.0	 1	    1.08889	    0.96889;
	196	 1	 0.00	 0.00	 0.0	 0.0	 1	    1.03519	   -6.80577	 225.0	 1	    1.08889	    0.93333;
	197	 1	 0.00	 0.00	 0.0	 0.0	 1	    1.03129	   -7.67746	 225.0	 1	    1.08889	    0.93333;
	198	 1	 91.75	 10.20	 0.0	 0.0	 1	    1.04384	  -22.35082	 225.0	 1	    1.08444	    1.00444;
	199	 1	 177.40	 -31.40	 0.0	 0.0	 1	    1.04825	  -21.29082	 225.0	 1	    1.08444	    1.00444;
	200	 1	 0.00	 0.00	 0.0	 0.0	 1	    1.07905	   -3.30245	 225.0	 1	    1.08889	    0.97778;
	201	 1	 0.00	 0.00	 0.0	 0.0	 1	    1.04053	  -21.66454	 225.0	 1	    1.08444	    1.00444;
	202	 1	 124.20	 -3.20	 0.0	 0.0	 1	    1.04608	  -33.68187	 225.0	 1	    1.08889	    0.95111;
	203	 1	 56.33	 1.90	 0.0	 0.0	 1	    1.02936	  -34.40908	 225.0	 1	    1.08889	    1.00444;
	204	 1	 51.60	 -4.00	 0.0	 0.0	 1	    1.07333	  -26.74527	 225.0	 1	    1.08889	    0.98667;
	2086	 1	 0.00	 0.00	 0.0	 -64.0	 1	    1.01452	  -18.45882	 20.0	 1	    1.40000	    0.80000;
	205	 1	 16.90	 -1.80	 0.0	 0.0	 1	    1.06455	  -18.03417	 225.0	 1	    1.08444	    1.00889;
	206	 1	 0.00	 0.00	 0.0	 0.0	 1	    1.06985	  -16.12728	 380.0	 1	    1.10263	    1.02895;
	207	 1	 38.60	 -0.70	 0.0	 0.0	 1	    1.02922	  -34.55606	 225.0	 1	    1.08889	    1.00444;
	1829	 2	 0.00	 0.00	 0.0	 0.0	 1	    1.04410	  -36.55448	 225.0	 1	    1.07859	    0.95000;
	208	 1	 0.00	 0.00	 0.0	 0.0	 1	    1.04404	  -36.55436	 225.0	 1	    1.08889	    0.88889;
	209	 1	 273.01	 24.70	 0.0	 0.0	 1	    1.04556	  -21.83727	 225.0	 1	    1.08444	    1.00444;
	210	 1	 73.88	 14.30	 0.0	 0.0	 1	    1.08472	  -22.27322	 225.0	 1	    1.09504	    0.98667;
	211	 1	 93.50	 9.80	 0.0	 0.0	 1	    1.08032	   -7.08145	 225.0	 1	    1.08444	    1.00889;
	212	 1	 14.60	 -0.70	 0.0	 0.0	 1	    1.08156	   -6.57011	 225.0	 1	    1.08444	    1.00889;
	213	 1	 120.31	 25.30	 0.0	 0.0	 1	    1.03023	   -8.00668	 225.0	 1	    1.08889	    0.93333;
	215	 1	 0.00	 0.00	 0.0	 0.0	 1	    1.07028	   -1.20052	 380.0	 1	    1.10526	    1.03947;
	216	 1	 74.90	 -2.90	 0.0	 0.0	 1	    1.07062	  -16.45280	 380.0	 1	    1.10526	    1.03947;
	217	 1	 0.00	 0.00	 0.0	 0.0	 1	    1.03139	   -7.64877	 225.0	 1	    1.08889	    0.93333;
	218	 1	 0.00	 0.00	 0.0	 0.0	 1	    1.03082	   -7.79420	 225.0	 1	    1.08889	    0.93333;
	219	 1	 88.72	 14.50	 0.0	 0.0	 1	    1.08395	   -3.25285	 225.0	 1	    1.08444	    1.00889;
	220	 1	 -0.10	 0.80	 0.0	 0.0	 1	    1.08442	   -3.17089	 225.0	 1	    1.08444	    1.00889;
	221	 1	 11.00	 -0.40	 0.0	 0.0	 1	    1.08082	   -6.03389	 225.0	 1	    1.08444	    1.00889;
	222	 1	 62.71	 5.60	 0.0	 0.0	 1	    1.05274	  -13.12803	 225.0	 1	    1.08889	    1.00444;
	223	 1	 34.47	 1.40	 0.0	 0.0	 1	    1.08039	   -7.01990	 225.0	 1	    1.08444	    1.00889;
	224	 1	 26.65	 2.30	 0.0	 0.0	 1	    1.08083	   -6.98440	 225.0	 1	    1.08444	    1.00889;
	225	 1	 2.00	 -1.40	 0.0	 0.0	 1	    1.05916	  -32.30173	 150.0	 1	    1.10667	    0.94667;
	1830	 1	 0.00	 0.00	 0.0	 0.0	 1	    1.04719	  -32.17072	 225.0	 1	    1.08444	    1.00444;
	226	 1	 0.00	 0.00	 0.0	 0.0	 1	    1.04770	  -27.74658	 380.0	 1	    1.10263	    1.04211;
	227	 1	 119.30	 -16.40	 0.0	 0.0	 1	    1.06750	  -26.92647	 225.0	 1	    1.09795	    1.00000;
	228	 1	 0.00	 0.00	 0.0	 0.0	 1	    1.05546	  -23.85014	 380.0	 1	    1.10526	    1.05019;
	229	 1	 115.04	 6.00	 0.0	 0.0	 1	    1.05476	  -32.62548	 225.0	 1	    1.08889	    0.91111;
	230	 1	 0.00	 0.00	 0.0	 0.0	 1	    1.06692	  -29.06645	 380.0	 1	    1.10526	    1.00000;
	231	 1	 25.69	 1.90	 0.0	 0.0	 1	    1.04089	  -35.62136	 225.0	 1	    1.08889	    1.00444;
	232	 1	 23.77	 0.90	 0.0	 0.0	 1	    1.02944	  -36.67382	 225.0	 1	    1.08889	    1.00444;
	233	 1	 9.73	 1.70	 0.0	 0.0	 1	    1.04438	  -26.19164	 225.0	 1	    1.08889	    0.98667;
	234	 1	 1.76	 1.70	 0.0	 0.0	 1	    1.04445	  -26.16568	 225.0	 1	    1.08889	    0.98667;
	235	 1	 2.00	 -3.90	 0.0	 0.0	 1	    1.04340	  -31.67632	 225.0	 1	    1.08889	    1.00444;
	236	 1	 4.15	 2.40	 0.0	 0.0	 1	    1.04319	  -31.67758	 225.0	 1	    1.08889	    1.00444;
	237	 1	 129.00	 -3.40	 0.0	 0.0	 1	    1.03531	  -34.77696	 225.0	 1	    1.08889	    1.00444;
	238	 1	 0.00	 0.00	 0.0	 0.0	 1	    1.03889	  -34.34645	 225.0	 1	    1.08889	    1.00444;
	239	 1	 41.17	 4.40	 0.0	 0.0	 1	    1.04279	  -32.68700	 225.0	 1	    1.08889	    1.00444;
	240	 1	 50.90	 3.60	 0.0	 0.0	 1	    1.04240	  -32.72704	 225.0	 1	    1.08889	    1.00444;
	241	 2	 4.30	 -1.00	 0.0	 0.0	 1	    0.99744	   21.13148	 20.0	 1	    1.10000	    0.90000;
	242	 1	 0.00	 0.00	 0.0	 0.0	 1	    1.08000	    7.57924	 150.0	 1	    1.08000	    0.96667;
	243	 1	 -3.40	 -9.50	 0.0	 0.0	 1	    1.08406	  -20.71567	 380.0	 1	    1.11402	    1.03947;
	244	 1	 49.30	 7.40	 0.0	 0.0	 1	    1.08948	  -21.25651	 380.0	 1	    1.11482	    1.03947;
	245	 1	 18.67	 0.60	 0.0	 0.0	 1	    1.08921	  -13.70898	 380.0	 1	    1.11264	    1.03947;
	246	 1	 -18.30	 -23.80	 0.0	 0.0	 1	    1.09392	  -14.05526	 380.0	 1	    1.11483	    1.03947;
	247	 1	 71.80	 5.30	 0.0	 0.0	 1	    1.00517	  -33.03441	 225.0	 1	    1.08889	    1.00444;
	2029	 1	 0.00	 0.00	 0.0	 -64.0	 1	    0.97357	  -20.53306	 20.0	 1	    1.40000	    0.90000;
	2030	 1	 0.00	 0.00	 0.0	 -64.0	 1	    0.97374	  -20.65944	 20.0	 1	    1.40000	    0.90000;
	248	 1	 0.00	 0.00	 0.0	 0.0	 1	    1.06260	  -20.45067	 225.0	 1	    1.08889	    1.00000;
	249	 1	 0.00	 0.00	 0.0	 0.0	 1	    1.06371	  -20.56970	 225.0	 1	    1.08889	    1.00000;
	250	 1	 0.00	 0.00	 0.0	 0.0	 1	    1.08605	  -19.59780	 380.0	 1	    1.10526	    1.05019;
	251	 1	 0.70	 -3.70	 0.0	 0.0	 1	    1.03042	   -8.01005	 225.0	 1	    1.08889	    0.93333;
	252	 1	 92.90	 -6.00	 0.0	 0.0	 1	    1.04887	  -29.54185	 380.0	 1	    1.10526	    1.03537;
	2025	 1	 0.00	 0.00	 0.0	 -58.0	 1	    0.97878	  -35.46700	 20.0	 1	    1.40000	    0.90000;
	2031	 1	 0.00	 0.00	 0.0	 -128.0	 1	    0.94700	  -34.37395	 20.0	 1	    1.40000	    0.90000;
	2032	 1	 0.00	 0.00	 0.0	 -58.0	 1	    0.97049	  -34.68727	 20.0	 1	    1.40000	    0.90000;
	2046	 1	 0.00	 0.00	 0.0	 -58.0	 1	    0.97340	  -34.89607	 20.0	 1	    1.40000	    0.90000;
	253	 1	 3.20	 -0.80	 0.0	 0.0	 1	    1.03472	  -33.51313	 225.0	 1	    1.08889	    1.00444;
	254	 1	 6.22	 3.00	 0.0	 0.0	 1	    1.03724	  -33.71662	 225.0	 1	    1.08889	    1.00444;
	255	 1	 0.00	 0.00	 0.0	 0.0	 1	    1.04597	  -32.10556	 225.0	 1	    1.08889	    1.00444;
	257	 1	 0.00	 0.00	 0.0	 0.0	 1	    1.04384	  -29.17785	 380.0	 1	    1.10526	    1.04211;
	258	 1	 0.00	 0.00	 0.0	 0.0	 1	    1.04373	  -29.36343	 380.0	 1	    1.10526	    1.04211;
	259	 1	 169.93	 20.70	 0.0	 0.0	 1	    1.05275	  -32.15165	 225.0	 1	    1.08889	    0.92889;
	260	 1	 157.50	 -28.30	 0.0	 0.0	 1	    1.07065	  -16.46274	 380.0	 1	    1.10526	    1.03947;
	261	 1	 91.40	 -3.20	 0.0	 0.0	 1	    1.03556	  -21.60102	 225.0	 1	    1.08444	    1.00444;
	262	 1	 5.50	 -1.30	 0.0	 0.0	 1	    1.03130	   -8.12317	 225.0	 1	    1.08889	    0.93333;
	263	 1	 331.89	 14.90	 0.0	 0.0	 1	    1.06734	   -4.85966	 380.0	 1	    1.10526	    1.03947;
	267	 1	 399.86	 22.20	 0.0	 0.0	 1	    1.03838	  -22.30030	 225.0	 1	    1.08444	    1.00444;
	268	 1	 0.00	 0.00	 0.0	 0.0	 1	    1.04246	  -18.50510	 380.0	 1	    1.10263	    1.04211;
	269	 1	 0.00	 0.00	 0.0	 0.0	 1	    1.04247	  -18.50117	 380.0	 1	    1.10263	    1.04211;
	270	 2	 74.04	 27.40	 0.0	 0.0	 1	    1.06846	  -18.18621	 20.0	 1	    1.06846	    0.95000;
	271	 1	 0.00	 0.00	 0.0	 0.0	 1	    1.08725	  -23.16673	 225.0	 1	    1.08889	    0.98667;
	272	 1	 254.18	 40.70	 0.0	 0.0	 1	    1.04002	  -17.31536	 225.0	 1	    1.08889	    0.98667;
	273	 1	 324.07	 3.90	 0.0	 0.0	 1	    1.05481	  -16.65949	 380.0	 1	    1.10263	    1.04211;
	274	 1	 79.78	 8.30	 0.0	 0.0	 1	    1.06624	  -25.36230	 225.0	 1	    1.09611	    0.98667;
	275	 1	 17.60	 -2.40	 0.0	 0.0	 1	    1.05463	  -28.56957	 225.0	 1	    1.08889	    1.00444;
	276	 1	 22.70	 -2.90	 0.0	 0.0	 1	    1.02168	  -36.73865	 225.0	 1	    1.08889	    1.00444;
	278	 1	 0.00	 0.00	 0.0	 0.0	 1	    1.07542	  -10.53492	 20.0	 1	    1.40000	    0.90000;
	279	 1	 36.20	 -22.30	 0.0	 0.0	 1	    1.06481	   -9.82651	 225.0	 1	    1.08889	    0.93333;
	280	 1	 270.46	 24.10	 0.0	 0.0	 1	    1.05821	   -6.55910	 380.0	 1	    1.10526	    1.03947;
	281	 1	 0.00	 0.00	 0.0	 0.0	 1	    1.02589	  -17.80820	 225.0	 1	    1.08959	    1.00000;
	282	 1	 0.00	 0.00	 0.0	 0.0	 1	    1.03019	  -16.70938	 225.0	 1	    1.08959	    1.00000;
	283	 1	 0.00	 0.00	 0.0	 0.0	 1	    1.06100	   -0.06946	 150.0	 1	    1.08000	    0.96667;
	284	 1	 25.80	 -6.70	 0.0	 0.0	 1	    1.04532	  -31.94223	 225.0	 1	    1.08889	    1.00444;
	285	 1	 65.60	 -1.00	 0.0	 0.0	 1	    1.03609	  -31.49563	 225.0	 1	    1.08889	    1.00444;
	286	 1	 83.29	 0.80	 0.0	 0.0	 1	    1.06634	  -16.57380	 225.0	 1	    1.08889	    0.93333;
	287	 1	 19.70	 -0.80	 0.0	 0.0	 1	    1.02957	  -25.22434	 225.0	 1	    1.08444	    1.00444;
	288	 1	 28.08	 2.00	 0.0	 0.0	 1	    1.02957	  -25.22520	 225.0	 1	    1.08444	    1.00444;
	289	 1	 58.80	 -0.80	 0.0	 0.0	 1	    1.03691	  -30.91594	 225.0	 1	    1.08889	    1.00444;
	2062	 1	 0.00	 0.00	 0.0	 -64.0	 1	    0.97629	  -29.96045	 20.0	 1	    1.40000	    0.90000;
	290	 1	 108.40	 -13.20	 0.0	 0.0	 1	    1.03574	  -29.47674	 225.0	 1	    1.08889	    1.00444;
	291	 1	 0.00	 0.00	 0.0	 0.0	 1	    1.04420	  -27.40797	 380.0	 1	    1.10526	    1.04211;
	292	 1	 0.00	 0.00	 0.0	 0.0	 1	    1.04453	  -27.37876	 380.0	 1	    1.10526	    1.04211;
	293	 1	 0.00	 0.00	 0.0	 0.0	 1	    1.05086	  -25.55812	 380.0	 1	    1.10526	    1.04211;
	294	 1	 0.00	 0.00	 0.0	 0.0	 1	    1.04436	  -27.39337	 380.0	 1	    1.10526	    1.04211;
	295	 1	 256.74	 1.60	 0.0	 0.0	 1	    1.03450	  -22.16176	 225.0	 1	    1.08444	    1.00444;
	296	 1	 0.00	 0.00	 0.0	 0.0	 1	    1.04751	  -32.89371	 380.0	 1	    1.10526	    1.00000;
	297	 1	 54.89	 6.60	 0.0	 0.0	 1	    1.04578	  -32.18071	 225.0	 1	    1.08889	    1.00444;
	298	 1	 0.00	 0.00	 0.0	 0.0	 1	    1.02108	  -36.84376	 225.0	 1	    1.08889	    1.00444;
	299	 1	 0.00	 0.00	 0.0	 0.0	 1	    1.08573	   -6.68604	 380.0	 1	    1.10526	    1.03947;
	300	 1	 0.00	 0.00	 0.0	 0.0	 1	    1.05195	  -12.51782	 380.0	 1	    1.10263	    1.04211;
	301	 1	 0.00	 0.00	 0.0	 0.0	 1	    1.05201	  -12.51693	 380.0	 1	    1.10263	    1.04211;
	302	 1	 0.00	 0.00	 0.0	 0.0	 1	    1.05191	  -12.51813	 380.0	 1	    1.10263	    1.04211;
	303	 1	 184.20	 -18.90	 0.0	 0.0	 1	    1.04383	  -22.48408	 225.0	 1	    1.08444	    1.00444;
	304	 1	 -15.60	 -17.20	 0.0	 0.0	 1	    1.08034	  -23.00737	 380.0	 1	    1.11618	    1.00000;
	305	 1	 -23.20	 0.60	 0.0	 0.0	 1	    1.09884	  -24.10680	 380.0	 1	    1.11703	    1.00000;
	306	 1	 42.20	 -0.70	 0.0	 0.0	 1	    1.06117	  -30.50349	 225.0	 1	    1.08889	    0.88889;
	2047	 1	 0.00	 0.00	 0.0	 -64.0	 1	    0.97027	  -31.22746	 20.0	 1	    1.40000	    0.90000;
	307	 1	 0.00	 0.00	 0.0	 0.0	 1	    1.03770	  -30.32818	 225.0	 1	    1.08889	    1.00444;
	308	 1	 0.00	 0.00	 0.0	 0.0	 1	    1.04247	  -26.84494	 380.0	 1	    1.10526	    1.04211;
	309	 1	 96.90	 -28.20	 0.0	 0.0	 1	    1.05771	  -21.62313	 225.0	 1	    1.09445	    1.00000;
	310	 1	 -1.70	 -3.40	 0.0	 0.0	 1	    1.04216	   -5.29147	 380.0	 1	    1.10263	    1.04211;
	311	 1	 -10.70	 -3.40	 0.0	 0.0	 1	    1.04211	   -5.31905	 380.0	 1	    1.10263	    1.04211;
	312	 1	 -7.20	 -9.30	 0.0	 0.0	 1	    1.05453	  -18.38634	 225.0	 1	    1.08895	    0.93333;
	313	 1	 87.60	 -1.80	 0.0	 0.0	 1	    1.05510	  -28.59754	 225.0	 1	    1.08889	    1.00444;
	314	 1	 51.38	 7.90	 0.0	 0.0	 1	    1.03567	  -37.21433	 225.0	 1	    1.08889	    0.88889;
	315	 1	 45.63	 2.60	 0.0	 0.0	 1	    1.03584	  -37.20812	 225.0	 1	    1.08889	    0.88889;
	316	 1	 0.00	 0.00	 0.0	 0.0	 1	    1.08543	   -6.87641	 380.0	 1	    1.10526	    1.03947;
	317	 1	 225.94	 32.10	 0.0	 0.0	 1	    1.06556	  -21.40536	 225.0	 1	    1.08889	    1.00000;
	318	 1	 30.10	 -3.00	 0.0	 0.0	 1	    1.02182	  -36.71218	 225.0	 1	    1.08889	    1.00444;
	319	 1	 13.08	 4.40	 0.0	 0.0	 1	    1.04846	  -13.10581	 150.0	 1	    1.10667	    0.90000;